version 2
run Default-0-20200717-10:54:59-4449
attr configname Default
attr datetime 20200717-10:54:59
attr experiment Default
attr inifile omnetpp.ini
attr iterationvars ""
attr iterationvarsf ""
attr measurement ""
attr network RSUExampleScenario
attr processid 4449
attr repetition 0
attr replication #0
attr resultdir results
attr runnumber 0
attr seedset 0
param **.debug false
param **.coreDebug false
param *.playgroundSizeX 2500m
param *.playgroundSizeY 2500m
param *.playgroundSizeZ 50m
param *.annotations.draw true
param *.obstacles.debug false
param *.obstacles.obstacles "xmldoc(\"config.xml\", \"//AnalogueModel[@type='SimpleObstacleShadowing']/obstacles\")"
param *.manager.updateInterval 1s
param *.manager.host "\"localhost\""
param *.manager.port 9999
param *.manager.autoShutdown true
param *.manager.launchConfig "xmldoc(\"erlangen.launchd.xml\")"
param *.rsu[0].mobility.x 2000
param *.rsu[0].mobility.y 2000
param *.rsu[0].mobility.z 3
param *.rsu[*].applType "\"TraCIDemoRSU11p\""
param *.rsu[*].appl.headerLength "80 bit"
param *.rsu[*].appl.sendBeacons false
param *.rsu[*].appl.dataOnSch false
param *.rsu[*].appl.beaconInterval 1s
param *.rsu[*].appl.beaconUserPriority 7
param *.rsu[*].appl.dataUserPriority 5
param *.connectionManager.sendDirect true
param *.connectionManager.maxInterfDist 2600m
param *.connectionManager.drawMaxIntfDist false
param *.**.nic.mac1609_4.useServiceChannel false
param *.**.nic.mac1609_4.txPower 20mW
param *.**.nic.mac1609_4.bitrate 6Mbps
param *.**.nic.phy80211p.sensitivity -89dBm
param *.**.nic.phy80211p.useThermalNoise true
param *.**.nic.phy80211p.thermalNoise -110dBm
param *.**.nic.phy80211p.decider "xmldoc(\"config.xml\")"
param *.**.nic.phy80211p.analogueModels "xmldoc(\"config.xml\")"
param *.**.nic.phy80211p.usePropagationDelay true
param *.**.nic.phy80211p.antenna "xmldoc(\"antenna.xml\", \"/root/Antenna[@id='monopole']\")"
param *.node[*].applType "\"TraCIDemo11p\""
param *.node[*].appl.headerLength "80 bit"
param *.node[*].appl.sendBeacons false
param *.node[*].appl.dataOnSch false
param *.node[*].appl.beaconInterval 1s
param *.node[*].veinsmobilityType.debug true
param *.node[*].veinsmobility.x 0
param *.node[*].veinsmobility.y 0
param *.node[*].veinsmobility.z 1.895
param *.node[*0].veinsmobility.accidentCount 1
param *.node[*0].veinsmobility.accidentStart 75s
param *.node[*0].veinsmobility.accidentDuration 50s

scalar RSUExampleScenario.node[0].appl generatedWSMs 1
scalar RSUExampleScenario.node[0].appl receivedWSMs 23
scalar RSUExampleScenario.node[0].appl generatedBSMs 0
scalar RSUExampleScenario.node[0].appl receivedBSMs 0
scalar RSUExampleScenario.node[0].appl generatedWSAs 0
scalar RSUExampleScenario.node[0].appl receivedWSAs 0
scalar RSUExampleScenario.node[0].nic.phy80211p busyTime 2.6814070351759e-05
scalar RSUExampleScenario.node[0].nic.mac1609_4 ReceivedUnicastPackets 0
scalar RSUExampleScenario.node[0].nic.mac1609_4 ReceivedBroadcasts 23
scalar RSUExampleScenario.node[0].nic.mac1609_4 SentPackets 1
scalar RSUExampleScenario.node[0].nic.mac1609_4 SentAcknowledgements 0
scalar RSUExampleScenario.node[0].nic.mac1609_4 SNIRLostPackets 0
scalar RSUExampleScenario.node[0].nic.mac1609_4 RXTXLostPackets 0
scalar RSUExampleScenario.node[0].nic.mac1609_4 TotalLostPackets 0
scalar RSUExampleScenario.node[0].nic.mac1609_4 DroppedPacketsInMac 0
scalar RSUExampleScenario.node[0].nic.mac1609_4 TooLittleTime 0
scalar RSUExampleScenario.node[0].nic.mac1609_4 TimesIntoBackoff 1
scalar RSUExampleScenario.node[0].nic.mac1609_4 SlotsBackoff 3
scalar RSUExampleScenario.node[0].nic.mac1609_4 NumInternalContention 0
scalar RSUExampleScenario.node[0].nic.mac1609_4 totalBusyTime 0.005569
scalar RSUExampleScenario.node[0].veinsmobility startTime 1
scalar RSUExampleScenario.node[0].veinsmobility totalTime 199
scalar RSUExampleScenario.node[0].veinsmobility stopTime 200
scalar RSUExampleScenario.node[0].veinsmobility minSpeed 0
scalar RSUExampleScenario.node[0].veinsmobility maxSpeed 13.998597038973
scalar RSUExampleScenario.node[0].veinsmobility totalDistance 1937.2982923983
scalar RSUExampleScenario.node[0].veinsmobility totalCO2Emission 409.18494690696
scalar RSUExampleScenario.node[1].appl generatedWSMs 1
scalar RSUExampleScenario.node[1].appl receivedWSMs 24
scalar RSUExampleScenario.node[1].appl generatedBSMs 0
scalar RSUExampleScenario.node[1].appl receivedBSMs 0
scalar RSUExampleScenario.node[1].appl generatedWSAs 0
scalar RSUExampleScenario.node[1].appl receivedWSAs 0
scalar RSUExampleScenario.node[1].nic.phy80211p busyTime 2.8408163265306e-05
scalar RSUExampleScenario.node[1].nic.mac1609_4 ReceivedUnicastPackets 0
scalar RSUExampleScenario.node[1].nic.mac1609_4 ReceivedBroadcasts 24
scalar RSUExampleScenario.node[1].nic.mac1609_4 SentPackets 1
scalar RSUExampleScenario.node[1].nic.mac1609_4 SentAcknowledgements 0
scalar RSUExampleScenario.node[1].nic.mac1609_4 SNIRLostPackets 0
scalar RSUExampleScenario.node[1].nic.mac1609_4 RXTXLostPackets 0
scalar RSUExampleScenario.node[1].nic.mac1609_4 TotalLostPackets 0
scalar RSUExampleScenario.node[1].nic.mac1609_4 DroppedPacketsInMac 0
scalar RSUExampleScenario.node[1].nic.mac1609_4 TooLittleTime 0
scalar RSUExampleScenario.node[1].nic.mac1609_4 TimesIntoBackoff 1
scalar RSUExampleScenario.node[1].nic.mac1609_4 SlotsBackoff 2
scalar RSUExampleScenario.node[1].nic.mac1609_4 NumInternalContention 0
scalar RSUExampleScenario.node[1].nic.mac1609_4 totalBusyTime 0.005801
scalar RSUExampleScenario.node[1].veinsmobility startTime 4
scalar RSUExampleScenario.node[1].veinsmobility totalTime 196
scalar RSUExampleScenario.node[1].veinsmobility stopTime 200
scalar RSUExampleScenario.node[1].veinsmobility minSpeed 0
scalar RSUExampleScenario.node[1].veinsmobility maxSpeed 13.996735759652
scalar RSUExampleScenario.node[1].veinsmobility totalDistance 1917.1665737297
scalar RSUExampleScenario.node[1].veinsmobility totalCO2Emission 403.00498703597
scalar RSUExampleScenario.node[10].appl generatedWSMs 1
scalar RSUExampleScenario.node[10].appl receivedWSMs 27
scalar RSUExampleScenario.node[10].appl generatedBSMs 0
scalar RSUExampleScenario.node[10].appl receivedBSMs 0
scalar RSUExampleScenario.node[10].appl generatedWSAs 0
scalar RSUExampleScenario.node[10].appl receivedWSAs 0
scalar RSUExampleScenario.node[10].nic.phy80211p busyTime 3.9810650887574e-05
scalar RSUExampleScenario.node[10].nic.mac1609_4 ReceivedUnicastPackets 0
scalar RSUExampleScenario.node[10].nic.mac1609_4 ReceivedBroadcasts 27
scalar RSUExampleScenario.node[10].nic.mac1609_4 SentPackets 1
scalar RSUExampleScenario.node[10].nic.mac1609_4 SentAcknowledgements 0
scalar RSUExampleScenario.node[10].nic.mac1609_4 SNIRLostPackets 2
scalar RSUExampleScenario.node[10].nic.mac1609_4 RXTXLostPackets 0
scalar RSUExampleScenario.node[10].nic.mac1609_4 TotalLostPackets 2
scalar RSUExampleScenario.node[10].nic.mac1609_4 DroppedPacketsInMac 0
scalar RSUExampleScenario.node[10].nic.mac1609_4 TooLittleTime 0
scalar RSUExampleScenario.node[10].nic.mac1609_4 TimesIntoBackoff 1
scalar RSUExampleScenario.node[10].nic.mac1609_4 SlotsBackoff 0
scalar RSUExampleScenario.node[10].nic.mac1609_4 NumInternalContention 0
scalar RSUExampleScenario.node[10].nic.mac1609_4 totalBusyTime 0.006729
scalar RSUExampleScenario.node[10].veinsmobility startTime 31
scalar RSUExampleScenario.node[10].veinsmobility totalTime 169
scalar RSUExampleScenario.node[10].veinsmobility stopTime 200
scalar RSUExampleScenario.node[10].veinsmobility minSpeed 0
scalar RSUExampleScenario.node[10].veinsmobility maxSpeed 13.999881321082
scalar RSUExampleScenario.node[10].veinsmobility totalDistance 1424.7900737965
scalar RSUExampleScenario.node[10].veinsmobility totalCO2Emission 351.13820358548
scalar RSUExampleScenario.node[11].appl generatedWSMs 1
scalar RSUExampleScenario.node[11].appl receivedWSMs 20
scalar RSUExampleScenario.node[11].appl generatedBSMs 0
scalar RSUExampleScenario.node[11].appl receivedBSMs 0
scalar RSUExampleScenario.node[11].appl generatedWSAs 0
scalar RSUExampleScenario.node[11].appl receivedWSAs 0
scalar RSUExampleScenario.node[11].nic.phy80211p busyTime 2.7951807228916e-05
scalar RSUExampleScenario.node[11].nic.mac1609_4 ReceivedUnicastPackets 0
scalar RSUExampleScenario.node[11].nic.mac1609_4 ReceivedBroadcasts 20
scalar RSUExampleScenario.node[11].nic.mac1609_4 SentPackets 1
scalar RSUExampleScenario.node[11].nic.mac1609_4 SentAcknowledgements 0
scalar RSUExampleScenario.node[11].nic.mac1609_4 SNIRLostPackets 0
scalar RSUExampleScenario.node[11].nic.mac1609_4 RXTXLostPackets 0
scalar RSUExampleScenario.node[11].nic.mac1609_4 TotalLostPackets 0
scalar RSUExampleScenario.node[11].nic.mac1609_4 DroppedPacketsInMac 0
scalar RSUExampleScenario.node[11].nic.mac1609_4 TooLittleTime 0
scalar RSUExampleScenario.node[11].nic.mac1609_4 TimesIntoBackoff 1
scalar RSUExampleScenario.node[11].nic.mac1609_4 SlotsBackoff 3
scalar RSUExampleScenario.node[11].nic.mac1609_4 NumInternalContention 0
scalar RSUExampleScenario.node[11].nic.mac1609_4 totalBusyTime 0.004873
scalar RSUExampleScenario.node[11].veinsmobility startTime 34
scalar RSUExampleScenario.node[11].veinsmobility totalTime 166
scalar RSUExampleScenario.node[11].veinsmobility stopTime 200
scalar RSUExampleScenario.node[11].veinsmobility minSpeed 0
scalar RSUExampleScenario.node[11].veinsmobility maxSpeed 13.994671131028
scalar RSUExampleScenario.node[11].veinsmobility totalDistance 1392.8586305473
scalar RSUExampleScenario.node[11].veinsmobility totalCO2Emission 339.75792811629
scalar RSUExampleScenario.node[12].appl generatedWSMs 1
scalar RSUExampleScenario.node[12].appl receivedWSMs 20
scalar RSUExampleScenario.node[12].appl generatedBSMs 0
scalar RSUExampleScenario.node[12].appl receivedBSMs 0
scalar RSUExampleScenario.node[12].appl generatedWSAs 0
scalar RSUExampleScenario.node[12].appl receivedWSAs 0
scalar RSUExampleScenario.node[12].nic.phy80211p busyTime 2.8466257668712e-05
scalar RSUExampleScenario.node[12].nic.mac1609_4 ReceivedUnicastPackets 0
scalar RSUExampleScenario.node[12].nic.mac1609_4 ReceivedBroadcasts 20
scalar RSUExampleScenario.node[12].nic.mac1609_4 SentPackets 1
scalar RSUExampleScenario.node[12].nic.mac1609_4 SentAcknowledgements 0
scalar RSUExampleScenario.node[12].nic.mac1609_4 SNIRLostPackets 0
scalar RSUExampleScenario.node[12].nic.mac1609_4 RXTXLostPackets 0
scalar RSUExampleScenario.node[12].nic.mac1609_4 TotalLostPackets 0
scalar RSUExampleScenario.node[12].nic.mac1609_4 DroppedPacketsInMac 0
scalar RSUExampleScenario.node[12].nic.mac1609_4 TooLittleTime 0
scalar RSUExampleScenario.node[12].nic.mac1609_4 TimesIntoBackoff 1
scalar RSUExampleScenario.node[12].nic.mac1609_4 SlotsBackoff 1
scalar RSUExampleScenario.node[12].nic.mac1609_4 NumInternalContention 0
scalar RSUExampleScenario.node[12].nic.mac1609_4 totalBusyTime 0.004873
scalar RSUExampleScenario.node[12].veinsmobility startTime 37
scalar RSUExampleScenario.node[12].veinsmobility totalTime 163
scalar RSUExampleScenario.node[12].veinsmobility stopTime 200
scalar RSUExampleScenario.node[12].veinsmobility minSpeed 0
scalar RSUExampleScenario.node[12].veinsmobility maxSpeed 13.999022939045
scalar RSUExampleScenario.node[12].veinsmobility totalDistance 1360.7591333961
scalar RSUExampleScenario.node[12].veinsmobility totalCO2Emission 334.17054053252
scalar RSUExampleScenario.node[13].appl generatedWSMs 1
scalar RSUExampleScenario.node[13].appl receivedWSMs 36
scalar RSUExampleScenario.node[13].appl generatedBSMs 0
scalar RSUExampleScenario.node[13].appl receivedBSMs 0
scalar RSUExampleScenario.node[13].appl generatedWSAs 0
scalar RSUExampleScenario.node[13].appl receivedWSAs 0
scalar RSUExampleScenario.node[13].nic.phy80211p busyTime 5.22e-05
scalar RSUExampleScenario.node[13].nic.mac1609_4 ReceivedUnicastPackets 0
scalar RSUExampleScenario.node[13].nic.mac1609_4 ReceivedBroadcasts 36
scalar RSUExampleScenario.node[13].nic.mac1609_4 SentPackets 1
scalar RSUExampleScenario.node[13].nic.mac1609_4 SentAcknowledgements 0
scalar RSUExampleScenario.node[13].nic.mac1609_4 SNIRLostPackets 0
scalar RSUExampleScenario.node[13].nic.mac1609_4 RXTXLostPackets 0
scalar RSUExampleScenario.node[13].nic.mac1609_4 TotalLostPackets 0
scalar RSUExampleScenario.node[13].nic.mac1609_4 DroppedPacketsInMac 0
scalar RSUExampleScenario.node[13].nic.mac1609_4 TooLittleTime 0
scalar RSUExampleScenario.node[13].nic.mac1609_4 TimesIntoBackoff 1
scalar RSUExampleScenario.node[13].nic.mac1609_4 SlotsBackoff 2
scalar RSUExampleScenario.node[13].nic.mac1609_4 NumInternalContention 0
scalar RSUExampleScenario.node[13].nic.mac1609_4 totalBusyTime 0.008585
scalar RSUExampleScenario.node[13].veinsmobility startTime 40
scalar RSUExampleScenario.node[13].veinsmobility totalTime 160
scalar RSUExampleScenario.node[13].veinsmobility stopTime 200
scalar RSUExampleScenario.node[13].veinsmobility minSpeed 0
scalar RSUExampleScenario.node[13].veinsmobility maxSpeed 13.999286729819
scalar RSUExampleScenario.node[13].veinsmobility totalDistance 1462.2146307824
scalar RSUExampleScenario.node[13].veinsmobility totalCO2Emission 303.02834899091
scalar RSUExampleScenario.node[14].appl generatedWSMs 1
scalar RSUExampleScenario.node[14].appl receivedWSMs 30
scalar RSUExampleScenario.node[14].appl generatedBSMs 0
scalar RSUExampleScenario.node[14].appl receivedBSMs 0
scalar RSUExampleScenario.node[14].appl generatedWSAs 0
scalar RSUExampleScenario.node[14].appl receivedWSAs 0
scalar RSUExampleScenario.node[14].nic.phy80211p busyTime 4.4331210191083e-05
scalar RSUExampleScenario.node[14].nic.mac1609_4 ReceivedUnicastPackets 0
scalar RSUExampleScenario.node[14].nic.mac1609_4 ReceivedBroadcasts 30
scalar RSUExampleScenario.node[14].nic.mac1609_4 SentPackets 1
scalar RSUExampleScenario.node[14].nic.mac1609_4 SentAcknowledgements 0
scalar RSUExampleScenario.node[14].nic.mac1609_4 SNIRLostPackets 0
scalar RSUExampleScenario.node[14].nic.mac1609_4 RXTXLostPackets 0
scalar RSUExampleScenario.node[14].nic.mac1609_4 TotalLostPackets 0
scalar RSUExampleScenario.node[14].nic.mac1609_4 DroppedPacketsInMac 0
scalar RSUExampleScenario.node[14].nic.mac1609_4 TooLittleTime 0
scalar RSUExampleScenario.node[14].nic.mac1609_4 TimesIntoBackoff 1
scalar RSUExampleScenario.node[14].nic.mac1609_4 SlotsBackoff 2
scalar RSUExampleScenario.node[14].nic.mac1609_4 NumInternalContention 0
scalar RSUExampleScenario.node[14].nic.mac1609_4 totalBusyTime 0.007193
scalar RSUExampleScenario.node[14].veinsmobility startTime 43
scalar RSUExampleScenario.node[14].veinsmobility totalTime 157
scalar RSUExampleScenario.node[14].veinsmobility stopTime 200
scalar RSUExampleScenario.node[14].veinsmobility minSpeed 0
scalar RSUExampleScenario.node[14].veinsmobility maxSpeed 13.994752751067
scalar RSUExampleScenario.node[14].veinsmobility totalDistance 1458.3968788315
scalar RSUExampleScenario.node[14].veinsmobility totalCO2Emission 302.18058390813
scalar RSUExampleScenario.node[15].appl generatedWSMs 1
scalar RSUExampleScenario.node[15].appl receivedWSMs 31
scalar RSUExampleScenario.node[15].appl generatedBSMs 0
scalar RSUExampleScenario.node[15].appl receivedBSMs 0
scalar RSUExampleScenario.node[15].appl generatedWSAs 0
scalar RSUExampleScenario.node[15].appl receivedWSAs 0
scalar RSUExampleScenario.node[15].nic.phy80211p busyTime 4.6701298701299e-05
scalar RSUExampleScenario.node[15].nic.mac1609_4 ReceivedUnicastPackets 0
scalar RSUExampleScenario.node[15].nic.mac1609_4 ReceivedBroadcasts 31
scalar RSUExampleScenario.node[15].nic.mac1609_4 SentPackets 1
scalar RSUExampleScenario.node[15].nic.mac1609_4 SentAcknowledgements 0
scalar RSUExampleScenario.node[15].nic.mac1609_4 SNIRLostPackets 0
scalar RSUExampleScenario.node[15].nic.mac1609_4 RXTXLostPackets 0
scalar RSUExampleScenario.node[15].nic.mac1609_4 TotalLostPackets 0
scalar RSUExampleScenario.node[15].nic.mac1609_4 DroppedPacketsInMac 0
scalar RSUExampleScenario.node[15].nic.mac1609_4 TooLittleTime 0
scalar RSUExampleScenario.node[15].nic.mac1609_4 TimesIntoBackoff 1
scalar RSUExampleScenario.node[15].nic.mac1609_4 SlotsBackoff 1
scalar RSUExampleScenario.node[15].nic.mac1609_4 NumInternalContention 0
scalar RSUExampleScenario.node[15].nic.mac1609_4 totalBusyTime 0.007425
scalar RSUExampleScenario.node[15].veinsmobility startTime 46
scalar RSUExampleScenario.node[15].veinsmobility totalTime 154
scalar RSUExampleScenario.node[15].veinsmobility stopTime 200
scalar RSUExampleScenario.node[15].veinsmobility minSpeed 0
scalar RSUExampleScenario.node[15].veinsmobility maxSpeed 13.99843092392
scalar RSUExampleScenario.node[15].veinsmobility totalDistance 1452.3267032878
scalar RSUExampleScenario.node[15].veinsmobility totalCO2Emission 298.50084860101
scalar RSUExampleScenario.node[16].appl generatedWSMs 1
scalar RSUExampleScenario.node[16].appl receivedWSMs 31
scalar RSUExampleScenario.node[16].appl generatedBSMs 0
scalar RSUExampleScenario.node[16].appl receivedBSMs 0
scalar RSUExampleScenario.node[16].appl generatedWSAs 0
scalar RSUExampleScenario.node[16].appl receivedWSAs 0
scalar RSUExampleScenario.node[16].nic.phy80211p busyTime 4.7629139072848e-05
scalar RSUExampleScenario.node[16].nic.mac1609_4 ReceivedUnicastPackets 0
scalar RSUExampleScenario.node[16].nic.mac1609_4 ReceivedBroadcasts 31
scalar RSUExampleScenario.node[16].nic.mac1609_4 SentPackets 1
scalar RSUExampleScenario.node[16].nic.mac1609_4 SentAcknowledgements 0
scalar RSUExampleScenario.node[16].nic.mac1609_4 SNIRLostPackets 0
scalar RSUExampleScenario.node[16].nic.mac1609_4 RXTXLostPackets 0
scalar RSUExampleScenario.node[16].nic.mac1609_4 TotalLostPackets 0
scalar RSUExampleScenario.node[16].nic.mac1609_4 DroppedPacketsInMac 0
scalar RSUExampleScenario.node[16].nic.mac1609_4 TooLittleTime 0
scalar RSUExampleScenario.node[16].nic.mac1609_4 TimesIntoBackoff 1
scalar RSUExampleScenario.node[16].nic.mac1609_4 SlotsBackoff 1
scalar RSUExampleScenario.node[16].nic.mac1609_4 NumInternalContention 0
scalar RSUExampleScenario.node[16].nic.mac1609_4 totalBusyTime 0.007425
scalar RSUExampleScenario.node[16].veinsmobility startTime 49
scalar RSUExampleScenario.node[16].veinsmobility totalTime 151
scalar RSUExampleScenario.node[16].veinsmobility stopTime 200
scalar RSUExampleScenario.node[16].veinsmobility minSpeed 0
scalar RSUExampleScenario.node[16].veinsmobility maxSpeed 13.996952916756
scalar RSUExampleScenario.node[16].veinsmobility totalDistance 1446.8480875801
scalar RSUExampleScenario.node[16].veinsmobility totalCO2Emission 295.9107985274
scalar RSUExampleScenario.node[17].appl generatedWSMs 1
scalar RSUExampleScenario.node[17].appl receivedWSMs 30
scalar RSUExampleScenario.node[17].appl generatedBSMs 0
scalar RSUExampleScenario.node[17].appl receivedBSMs 0
scalar RSUExampleScenario.node[17].appl generatedWSAs 0
scalar RSUExampleScenario.node[17].appl receivedWSAs 0
scalar RSUExampleScenario.node[17].nic.phy80211p busyTime 4.7027027027027e-05
scalar RSUExampleScenario.node[17].nic.mac1609_4 ReceivedUnicastPackets 0
scalar RSUExampleScenario.node[17].nic.mac1609_4 ReceivedBroadcasts 30
scalar RSUExampleScenario.node[17].nic.mac1609_4 SentPackets 1
scalar RSUExampleScenario.node[17].nic.mac1609_4 SentAcknowledgements 0
scalar RSUExampleScenario.node[17].nic.mac1609_4 SNIRLostPackets 0
scalar RSUExampleScenario.node[17].nic.mac1609_4 RXTXLostPackets 0
scalar RSUExampleScenario.node[17].nic.mac1609_4 TotalLostPackets 0
scalar RSUExampleScenario.node[17].nic.mac1609_4 DroppedPacketsInMac 0
scalar RSUExampleScenario.node[17].nic.mac1609_4 TooLittleTime 0
scalar RSUExampleScenario.node[17].nic.mac1609_4 TimesIntoBackoff 1
scalar RSUExampleScenario.node[17].nic.mac1609_4 SlotsBackoff 2
scalar RSUExampleScenario.node[17].nic.mac1609_4 NumInternalContention 0
scalar RSUExampleScenario.node[17].nic.mac1609_4 totalBusyTime 0.007193
scalar RSUExampleScenario.node[17].veinsmobility startTime 52
scalar RSUExampleScenario.node[17].veinsmobility totalTime 148
scalar RSUExampleScenario.node[17].veinsmobility stopTime 200
scalar RSUExampleScenario.node[17].veinsmobility minSpeed 0
scalar RSUExampleScenario.node[17].veinsmobility maxSpeed 13.998349398044
scalar RSUExampleScenario.node[17].veinsmobility totalDistance 1442.4238822809
scalar RSUExampleScenario.node[17].veinsmobility totalCO2Emission 292.34875149294
scalar RSUExampleScenario.node[18].appl generatedWSMs 1
scalar RSUExampleScenario.node[18].appl receivedWSMs 33
scalar RSUExampleScenario.node[18].appl generatedBSMs 0
scalar RSUExampleScenario.node[18].appl receivedBSMs 0
scalar RSUExampleScenario.node[18].appl generatedWSAs 0
scalar RSUExampleScenario.node[18].appl receivedWSAs 0
scalar RSUExampleScenario.node[18].nic.phy80211p busyTime 5.28e-05
scalar RSUExampleScenario.node[18].nic.mac1609_4 ReceivedUnicastPackets 0
scalar RSUExampleScenario.node[18].nic.mac1609_4 ReceivedBroadcasts 33
scalar RSUExampleScenario.node[18].nic.mac1609_4 SentPackets 1
scalar RSUExampleScenario.node[18].nic.mac1609_4 SentAcknowledgements 0
scalar RSUExampleScenario.node[18].nic.mac1609_4 SNIRLostPackets 0
scalar RSUExampleScenario.node[18].nic.mac1609_4 RXTXLostPackets 0
scalar RSUExampleScenario.node[18].nic.mac1609_4 TotalLostPackets 0
scalar RSUExampleScenario.node[18].nic.mac1609_4 DroppedPacketsInMac 0
scalar RSUExampleScenario.node[18].nic.mac1609_4 TooLittleTime 0
scalar RSUExampleScenario.node[18].nic.mac1609_4 TimesIntoBackoff 1
scalar RSUExampleScenario.node[18].nic.mac1609_4 SlotsBackoff 1
scalar RSUExampleScenario.node[18].nic.mac1609_4 NumInternalContention 0
scalar RSUExampleScenario.node[18].nic.mac1609_4 totalBusyTime 0.007889
scalar RSUExampleScenario.node[18].veinsmobility startTime 55
scalar RSUExampleScenario.node[18].veinsmobility totalTime 145
scalar RSUExampleScenario.node[18].veinsmobility stopTime 200
scalar RSUExampleScenario.node[18].veinsmobility minSpeed 0
scalar RSUExampleScenario.node[18].veinsmobility maxSpeed 13.994754039121
scalar RSUExampleScenario.node[18].veinsmobility totalDistance 1439.216619509
scalar RSUExampleScenario.node[18].veinsmobility totalCO2Emission 288.31819292794
scalar RSUExampleScenario.node[19].appl generatedWSMs 1
scalar RSUExampleScenario.node[19].appl receivedWSMs 33
scalar RSUExampleScenario.node[19].appl generatedBSMs 0
scalar RSUExampleScenario.node[19].appl receivedBSMs 0
scalar RSUExampleScenario.node[19].appl generatedWSAs 0
scalar RSUExampleScenario.node[19].appl receivedWSAs 0
scalar RSUExampleScenario.node[19].nic.phy80211p busyTime 5.3915492957746e-05
scalar RSUExampleScenario.node[19].nic.mac1609_4 ReceivedUnicastPackets 0
scalar RSUExampleScenario.node[19].nic.mac1609_4 ReceivedBroadcasts 33
scalar RSUExampleScenario.node[19].nic.mac1609_4 SentPackets 1
scalar RSUExampleScenario.node[19].nic.mac1609_4 SentAcknowledgements 0
scalar RSUExampleScenario.node[19].nic.mac1609_4 SNIRLostPackets 0
scalar RSUExampleScenario.node[19].nic.mac1609_4 RXTXLostPackets 0
scalar RSUExampleScenario.node[19].nic.mac1609_4 TotalLostPackets 0
scalar RSUExampleScenario.node[19].nic.mac1609_4 DroppedPacketsInMac 0
scalar RSUExampleScenario.node[19].nic.mac1609_4 TooLittleTime 0
scalar RSUExampleScenario.node[19].nic.mac1609_4 TimesIntoBackoff 1
scalar RSUExampleScenario.node[19].nic.mac1609_4 SlotsBackoff 1
scalar RSUExampleScenario.node[19].nic.mac1609_4 NumInternalContention 0
scalar RSUExampleScenario.node[19].nic.mac1609_4 totalBusyTime 0.007889
scalar RSUExampleScenario.node[19].veinsmobility startTime 58
scalar RSUExampleScenario.node[19].veinsmobility totalTime 142
scalar RSUExampleScenario.node[19].veinsmobility stopTime 200
scalar RSUExampleScenario.node[19].veinsmobility minSpeed 0
scalar RSUExampleScenario.node[19].veinsmobility maxSpeed 13.996734256393
scalar RSUExampleScenario.node[19].veinsmobility totalDistance 1433.3540295266
scalar RSUExampleScenario.node[19].veinsmobility totalCO2Emission 285.43269366012
scalar RSUExampleScenario.node[2].appl generatedWSMs 1
scalar RSUExampleScenario.node[2].appl receivedWSMs 24
scalar RSUExampleScenario.node[2].appl generatedBSMs 0
scalar RSUExampleScenario.node[2].appl receivedBSMs 0
scalar RSUExampleScenario.node[2].appl generatedWSAs 0
scalar RSUExampleScenario.node[2].appl receivedWSAs 0
scalar RSUExampleScenario.node[2].nic.phy80211p busyTime 2.8849740932642e-05
scalar RSUExampleScenario.node[2].nic.mac1609_4 ReceivedUnicastPackets 0
scalar RSUExampleScenario.node[2].nic.mac1609_4 ReceivedBroadcasts 24
scalar RSUExampleScenario.node[2].nic.mac1609_4 SentPackets 1
scalar RSUExampleScenario.node[2].nic.mac1609_4 SentAcknowledgements 0
scalar RSUExampleScenario.node[2].nic.mac1609_4 SNIRLostPackets 0
scalar RSUExampleScenario.node[2].nic.mac1609_4 RXTXLostPackets 0
scalar RSUExampleScenario.node[2].nic.mac1609_4 TotalLostPackets 0
scalar RSUExampleScenario.node[2].nic.mac1609_4 DroppedPacketsInMac 0
scalar RSUExampleScenario.node[2].nic.mac1609_4 TooLittleTime 0
scalar RSUExampleScenario.node[2].nic.mac1609_4 TimesIntoBackoff 1
scalar RSUExampleScenario.node[2].nic.mac1609_4 SlotsBackoff 0
scalar RSUExampleScenario.node[2].nic.mac1609_4 NumInternalContention 0
scalar RSUExampleScenario.node[2].nic.mac1609_4 totalBusyTime 0.005801
scalar RSUExampleScenario.node[2].veinsmobility startTime 7
scalar RSUExampleScenario.node[2].veinsmobility totalTime 193
scalar RSUExampleScenario.node[2].veinsmobility stopTime 200
scalar RSUExampleScenario.node[2].veinsmobility minSpeed 0
scalar RSUExampleScenario.node[2].veinsmobility maxSpeed 13.995451386345
scalar RSUExampleScenario.node[2].veinsmobility totalDistance 1888.8671108084
scalar RSUExampleScenario.node[2].veinsmobility totalCO2Emission 398.37145849984
scalar RSUExampleScenario.node[20].appl generatedWSMs 1
scalar RSUExampleScenario.node[20].appl receivedWSMs 32
scalar RSUExampleScenario.node[20].appl generatedBSMs 0
scalar RSUExampleScenario.node[20].appl receivedBSMs 0
scalar RSUExampleScenario.node[20].appl generatedWSAs 0
scalar RSUExampleScenario.node[20].appl receivedWSAs 0
scalar RSUExampleScenario.node[20].nic.phy80211p busyTime 5.3410071942446e-05
scalar RSUExampleScenario.node[20].nic.mac1609_4 ReceivedUnicastPackets 0
scalar RSUExampleScenario.node[20].nic.mac1609_4 ReceivedBroadcasts 32
scalar RSUExampleScenario.node[20].nic.mac1609_4 SentPackets 1
scalar RSUExampleScenario.node[20].nic.mac1609_4 SentAcknowledgements 0
scalar RSUExampleScenario.node[20].nic.mac1609_4 SNIRLostPackets 0
scalar RSUExampleScenario.node[20].nic.mac1609_4 RXTXLostPackets 0
scalar RSUExampleScenario.node[20].nic.mac1609_4 TotalLostPackets 0
scalar RSUExampleScenario.node[20].nic.mac1609_4 DroppedPacketsInMac 0
scalar RSUExampleScenario.node[20].nic.mac1609_4 TooLittleTime 0
scalar RSUExampleScenario.node[20].nic.mac1609_4 TimesIntoBackoff 1
scalar RSUExampleScenario.node[20].nic.mac1609_4 SlotsBackoff 0
scalar RSUExampleScenario.node[20].nic.mac1609_4 NumInternalContention 0
scalar RSUExampleScenario.node[20].nic.mac1609_4 totalBusyTime 0.007657
scalar RSUExampleScenario.node[20].veinsmobility startTime 61
scalar RSUExampleScenario.node[20].veinsmobility totalTime 139
scalar RSUExampleScenario.node[20].veinsmobility stopTime 200
scalar RSUExampleScenario.node[20].veinsmobility minSpeed 0
scalar RSUExampleScenario.node[20].veinsmobility maxSpeed 13.999501384608
scalar RSUExampleScenario.node[20].veinsmobility totalDistance 1113.1447409871
scalar RSUExampleScenario.node[20].veinsmobility totalCO2Emission 288.82386170383
scalar RSUExampleScenario.node[21].appl generatedWSMs 1
scalar RSUExampleScenario.node[21].appl receivedWSMs 19
scalar RSUExampleScenario.node[21].appl generatedBSMs 0
scalar RSUExampleScenario.node[21].appl receivedBSMs 0
scalar RSUExampleScenario.node[21].appl generatedWSAs 0
scalar RSUExampleScenario.node[21].appl receivedWSAs 0
scalar RSUExampleScenario.node[21].nic.phy80211p busyTime 3.2411764705882e-05
scalar RSUExampleScenario.node[21].nic.mac1609_4 ReceivedUnicastPackets 0
scalar RSUExampleScenario.node[21].nic.mac1609_4 ReceivedBroadcasts 19
scalar RSUExampleScenario.node[21].nic.mac1609_4 SentPackets 1
scalar RSUExampleScenario.node[21].nic.mac1609_4 SentAcknowledgements 0
scalar RSUExampleScenario.node[21].nic.mac1609_4 SNIRLostPackets 0
scalar RSUExampleScenario.node[21].nic.mac1609_4 RXTXLostPackets 0
scalar RSUExampleScenario.node[21].nic.mac1609_4 TotalLostPackets 0
scalar RSUExampleScenario.node[21].nic.mac1609_4 DroppedPacketsInMac 0
scalar RSUExampleScenario.node[21].nic.mac1609_4 TooLittleTime 0
scalar RSUExampleScenario.node[21].nic.mac1609_4 TimesIntoBackoff 1
scalar RSUExampleScenario.node[21].nic.mac1609_4 SlotsBackoff 3
scalar RSUExampleScenario.node[21].nic.mac1609_4 NumInternalContention 0
scalar RSUExampleScenario.node[21].nic.mac1609_4 totalBusyTime 0.004641
scalar RSUExampleScenario.node[21].veinsmobility startTime 64
scalar RSUExampleScenario.node[21].veinsmobility totalTime 136
scalar RSUExampleScenario.node[21].veinsmobility stopTime 200
scalar RSUExampleScenario.node[21].veinsmobility minSpeed 3.9644295542033
scalar RSUExampleScenario.node[21].veinsmobility maxSpeed 13.993822778407
scalar RSUExampleScenario.node[21].veinsmobility totalDistance 1365.6600975587
scalar RSUExampleScenario.node[21].veinsmobility totalCO2Emission 308.66713337708
scalar RSUExampleScenario.node[22].appl generatedWSMs 1
scalar RSUExampleScenario.node[22].appl receivedWSMs 18
scalar RSUExampleScenario.node[22].appl generatedBSMs 0
scalar RSUExampleScenario.node[22].appl receivedBSMs 0
scalar RSUExampleScenario.node[22].appl generatedWSAs 0
scalar RSUExampleScenario.node[22].appl receivedWSAs 0
scalar RSUExampleScenario.node[22].nic.phy80211p busyTime 3.1398496240601e-05
scalar RSUExampleScenario.node[22].nic.mac1609_4 ReceivedUnicastPackets 0
scalar RSUExampleScenario.node[22].nic.mac1609_4 ReceivedBroadcasts 18
scalar RSUExampleScenario.node[22].nic.mac1609_4 SentPackets 1
scalar RSUExampleScenario.node[22].nic.mac1609_4 SentAcknowledgements 0
scalar RSUExampleScenario.node[22].nic.mac1609_4 SNIRLostPackets 0
scalar RSUExampleScenario.node[22].nic.mac1609_4 RXTXLostPackets 0
scalar RSUExampleScenario.node[22].nic.mac1609_4 TotalLostPackets 0
scalar RSUExampleScenario.node[22].nic.mac1609_4 DroppedPacketsInMac 0
scalar RSUExampleScenario.node[22].nic.mac1609_4 TooLittleTime 0
scalar RSUExampleScenario.node[22].nic.mac1609_4 TimesIntoBackoff 1
scalar RSUExampleScenario.node[22].nic.mac1609_4 SlotsBackoff 2
scalar RSUExampleScenario.node[22].nic.mac1609_4 NumInternalContention 0
scalar RSUExampleScenario.node[22].nic.mac1609_4 totalBusyTime 0.004409
scalar RSUExampleScenario.node[22].veinsmobility startTime 67
scalar RSUExampleScenario.node[22].veinsmobility totalTime 133
scalar RSUExampleScenario.node[22].veinsmobility stopTime 200
scalar RSUExampleScenario.node[22].veinsmobility minSpeed 4.0308093637787
scalar RSUExampleScenario.node[22].veinsmobility maxSpeed 13.997786448689
scalar RSUExampleScenario.node[22].veinsmobility totalDistance 1324.2820880212
scalar RSUExampleScenario.node[22].veinsmobility totalCO2Emission 301.12708973081
scalar RSUExampleScenario.node[23].appl generatedWSMs 1
scalar RSUExampleScenario.node[23].appl receivedWSMs 17
scalar RSUExampleScenario.node[23].appl generatedBSMs 0
scalar RSUExampleScenario.node[23].appl receivedBSMs 0
scalar RSUExampleScenario.node[23].appl generatedWSAs 0
scalar RSUExampleScenario.node[23].appl receivedWSAs 0
scalar RSUExampleScenario.node[23].nic.phy80211p busyTime 3.0338461538462e-05
scalar RSUExampleScenario.node[23].nic.mac1609_4 ReceivedUnicastPackets 0
scalar RSUExampleScenario.node[23].nic.mac1609_4 ReceivedBroadcasts 17
scalar RSUExampleScenario.node[23].nic.mac1609_4 SentPackets 1
scalar RSUExampleScenario.node[23].nic.mac1609_4 SentAcknowledgements 0
scalar RSUExampleScenario.node[23].nic.mac1609_4 SNIRLostPackets 0
scalar RSUExampleScenario.node[23].nic.mac1609_4 RXTXLostPackets 0
scalar RSUExampleScenario.node[23].nic.mac1609_4 TotalLostPackets 0
scalar RSUExampleScenario.node[23].nic.mac1609_4 DroppedPacketsInMac 0
scalar RSUExampleScenario.node[23].nic.mac1609_4 TooLittleTime 0
scalar RSUExampleScenario.node[23].nic.mac1609_4 TimesIntoBackoff 1
scalar RSUExampleScenario.node[23].nic.mac1609_4 SlotsBackoff 3
scalar RSUExampleScenario.node[23].nic.mac1609_4 NumInternalContention 0
scalar RSUExampleScenario.node[23].nic.mac1609_4 totalBusyTime 0.004177
scalar RSUExampleScenario.node[23].veinsmobility startTime 70
scalar RSUExampleScenario.node[23].veinsmobility totalTime 130
scalar RSUExampleScenario.node[23].veinsmobility stopTime 200
scalar RSUExampleScenario.node[23].veinsmobility minSpeed 0
scalar RSUExampleScenario.node[23].veinsmobility maxSpeed 13.996489755223
scalar RSUExampleScenario.node[23].veinsmobility totalDistance 1175.2885864721
scalar RSUExampleScenario.node[23].veinsmobility totalCO2Emission 290.97104964059
scalar RSUExampleScenario.node[24].appl generatedWSMs 1
scalar RSUExampleScenario.node[24].appl receivedWSMs 16
scalar RSUExampleScenario.node[24].appl generatedBSMs 0
scalar RSUExampleScenario.node[24].appl receivedBSMs 0
scalar RSUExampleScenario.node[24].appl generatedWSAs 0
scalar RSUExampleScenario.node[24].appl receivedWSAs 0
scalar RSUExampleScenario.node[24].nic.phy80211p busyTime 2.9228346456693e-05
scalar RSUExampleScenario.node[24].nic.mac1609_4 ReceivedUnicastPackets 0
scalar RSUExampleScenario.node[24].nic.mac1609_4 ReceivedBroadcasts 16
scalar RSUExampleScenario.node[24].nic.mac1609_4 SentPackets 1
scalar RSUExampleScenario.node[24].nic.mac1609_4 SentAcknowledgements 0
scalar RSUExampleScenario.node[24].nic.mac1609_4 SNIRLostPackets 0
scalar RSUExampleScenario.node[24].nic.mac1609_4 RXTXLostPackets 0
scalar RSUExampleScenario.node[24].nic.mac1609_4 TotalLostPackets 0
scalar RSUExampleScenario.node[24].nic.mac1609_4 DroppedPacketsInMac 0
scalar RSUExampleScenario.node[24].nic.mac1609_4 TooLittleTime 0
scalar RSUExampleScenario.node[24].nic.mac1609_4 TimesIntoBackoff 1
scalar RSUExampleScenario.node[24].nic.mac1609_4 SlotsBackoff 3
scalar RSUExampleScenario.node[24].nic.mac1609_4 NumInternalContention 0
scalar RSUExampleScenario.node[24].nic.mac1609_4 totalBusyTime 0.003945
scalar RSUExampleScenario.node[24].veinsmobility startTime 73
scalar RSUExampleScenario.node[24].veinsmobility totalTime 127
scalar RSUExampleScenario.node[24].veinsmobility stopTime 200
scalar RSUExampleScenario.node[24].veinsmobility minSpeed 0
scalar RSUExampleScenario.node[24].veinsmobility maxSpeed 13.986490815003
scalar RSUExampleScenario.node[24].veinsmobility totalDistance 1135.3805134404
scalar RSUExampleScenario.node[24].veinsmobility totalCO2Emission 285.74838205751
scalar RSUExampleScenario.node[25].appl generatedWSMs 1
scalar RSUExampleScenario.node[25].appl receivedWSMs 12
scalar RSUExampleScenario.node[25].appl generatedBSMs 0
scalar RSUExampleScenario.node[25].appl receivedBSMs 0
scalar RSUExampleScenario.node[25].appl generatedWSAs 0
scalar RSUExampleScenario.node[25].appl receivedWSAs 0
scalar RSUExampleScenario.node[25].nic.phy80211p busyTime 2.2451612903226e-05
scalar RSUExampleScenario.node[25].nic.mac1609_4 ReceivedUnicastPackets 0
scalar RSUExampleScenario.node[25].nic.mac1609_4 ReceivedBroadcasts 12
scalar RSUExampleScenario.node[25].nic.mac1609_4 SentPackets 1
scalar RSUExampleScenario.node[25].nic.mac1609_4 SentAcknowledgements 0
scalar RSUExampleScenario.node[25].nic.mac1609_4 SNIRLostPackets 0
scalar RSUExampleScenario.node[25].nic.mac1609_4 RXTXLostPackets 0
scalar RSUExampleScenario.node[25].nic.mac1609_4 TotalLostPackets 0
scalar RSUExampleScenario.node[25].nic.mac1609_4 DroppedPacketsInMac 0
scalar RSUExampleScenario.node[25].nic.mac1609_4 TooLittleTime 0
scalar RSUExampleScenario.node[25].nic.mac1609_4 TimesIntoBackoff 1
scalar RSUExampleScenario.node[25].nic.mac1609_4 SlotsBackoff 2
scalar RSUExampleScenario.node[25].nic.mac1609_4 NumInternalContention 0
scalar RSUExampleScenario.node[25].nic.mac1609_4 totalBusyTime 0.003017
scalar RSUExampleScenario.node[25].veinsmobility startTime 76
scalar RSUExampleScenario.node[25].veinsmobility totalTime 124
scalar RSUExampleScenario.node[25].veinsmobility stopTime 200
scalar RSUExampleScenario.node[25].veinsmobility minSpeed 0.64697990850645
scalar RSUExampleScenario.node[25].veinsmobility maxSpeed 13.883047924715
scalar RSUExampleScenario.node[25].veinsmobility totalDistance 1100.6934789319
scalar RSUExampleScenario.node[25].veinsmobility totalCO2Emission 277.10591964303
scalar RSUExampleScenario.node[26].appl generatedWSMs 1
scalar RSUExampleScenario.node[26].appl receivedWSMs 12
scalar RSUExampleScenario.node[26].appl generatedBSMs 0
scalar RSUExampleScenario.node[26].appl receivedBSMs 0
scalar RSUExampleScenario.node[26].appl generatedWSAs 0
scalar RSUExampleScenario.node[26].appl receivedWSAs 0
scalar RSUExampleScenario.node[26].nic.phy80211p busyTime 2.300826446281e-05
scalar RSUExampleScenario.node[26].nic.mac1609_4 ReceivedUnicastPackets 0
scalar RSUExampleScenario.node[26].nic.mac1609_4 ReceivedBroadcasts 12
scalar RSUExampleScenario.node[26].nic.mac1609_4 SentPackets 1
scalar RSUExampleScenario.node[26].nic.mac1609_4 SentAcknowledgements 0
scalar RSUExampleScenario.node[26].nic.mac1609_4 SNIRLostPackets 0
scalar RSUExampleScenario.node[26].nic.mac1609_4 RXTXLostPackets 0
scalar RSUExampleScenario.node[26].nic.mac1609_4 TotalLostPackets 0
scalar RSUExampleScenario.node[26].nic.mac1609_4 DroppedPacketsInMac 0
scalar RSUExampleScenario.node[26].nic.mac1609_4 TooLittleTime 0
scalar RSUExampleScenario.node[26].nic.mac1609_4 TimesIntoBackoff 1
scalar RSUExampleScenario.node[26].nic.mac1609_4 SlotsBackoff 3
scalar RSUExampleScenario.node[26].nic.mac1609_4 NumInternalContention 0
scalar RSUExampleScenario.node[26].nic.mac1609_4 totalBusyTime 0.003017
scalar RSUExampleScenario.node[26].veinsmobility startTime 79
scalar RSUExampleScenario.node[26].veinsmobility totalTime 121
scalar RSUExampleScenario.node[26].veinsmobility stopTime 200
scalar RSUExampleScenario.node[26].veinsmobility minSpeed 1.981108282241
scalar RSUExampleScenario.node[26].veinsmobility maxSpeed 13.987894263812
scalar RSUExampleScenario.node[26].veinsmobility totalDistance 1067.0221356541
scalar RSUExampleScenario.node[26].veinsmobility totalCO2Emission 268.45964950054
scalar RSUExampleScenario.node[27].appl generatedWSMs 1
scalar RSUExampleScenario.node[27].appl receivedWSMs 14
scalar RSUExampleScenario.node[27].appl generatedBSMs 0
scalar RSUExampleScenario.node[27].appl receivedBSMs 0
scalar RSUExampleScenario.node[27].appl generatedWSAs 0
scalar RSUExampleScenario.node[27].appl receivedWSAs 0
scalar RSUExampleScenario.node[27].nic.phy80211p busyTime 2.7525423728814e-05
scalar RSUExampleScenario.node[27].nic.mac1609_4 ReceivedUnicastPackets 0
scalar RSUExampleScenario.node[27].nic.mac1609_4 ReceivedBroadcasts 14
scalar RSUExampleScenario.node[27].nic.mac1609_4 SentPackets 1
scalar RSUExampleScenario.node[27].nic.mac1609_4 SentAcknowledgements 0
scalar RSUExampleScenario.node[27].nic.mac1609_4 SNIRLostPackets 0
scalar RSUExampleScenario.node[27].nic.mac1609_4 RXTXLostPackets 0
scalar RSUExampleScenario.node[27].nic.mac1609_4 TotalLostPackets 0
scalar RSUExampleScenario.node[27].nic.mac1609_4 DroppedPacketsInMac 0
scalar RSUExampleScenario.node[27].nic.mac1609_4 TooLittleTime 0
scalar RSUExampleScenario.node[27].nic.mac1609_4 TimesIntoBackoff 1
scalar RSUExampleScenario.node[27].nic.mac1609_4 SlotsBackoff 2
scalar RSUExampleScenario.node[27].nic.mac1609_4 NumInternalContention 0
scalar RSUExampleScenario.node[27].nic.mac1609_4 totalBusyTime 0.003481
scalar RSUExampleScenario.node[27].veinsmobility startTime 82
scalar RSUExampleScenario.node[27].veinsmobility totalTime 118
scalar RSUExampleScenario.node[27].veinsmobility stopTime 200
scalar RSUExampleScenario.node[27].veinsmobility minSpeed 3.5934579459086
scalar RSUExampleScenario.node[27].veinsmobility maxSpeed 13.98641392444
scalar RSUExampleScenario.node[27].veinsmobility totalDistance 1032.6407062822
scalar RSUExampleScenario.node[27].veinsmobility totalCO2Emission 261.59814543951
scalar RSUExampleScenario.node[28].appl generatedWSMs 1
scalar RSUExampleScenario.node[28].appl receivedWSMs 16
scalar RSUExampleScenario.node[28].appl generatedBSMs 0
scalar RSUExampleScenario.node[28].appl receivedBSMs 0
scalar RSUExampleScenario.node[28].appl generatedWSAs 0
scalar RSUExampleScenario.node[28].appl receivedWSAs 0
scalar RSUExampleScenario.node[28].nic.phy80211p busyTime 3.2278260869565e-05
scalar RSUExampleScenario.node[28].nic.mac1609_4 ReceivedUnicastPackets 0
scalar RSUExampleScenario.node[28].nic.mac1609_4 ReceivedBroadcasts 16
scalar RSUExampleScenario.node[28].nic.mac1609_4 SentPackets 1
scalar RSUExampleScenario.node[28].nic.mac1609_4 SentAcknowledgements 0
scalar RSUExampleScenario.node[28].nic.mac1609_4 SNIRLostPackets 0
scalar RSUExampleScenario.node[28].nic.mac1609_4 RXTXLostPackets 0
scalar RSUExampleScenario.node[28].nic.mac1609_4 TotalLostPackets 0
scalar RSUExampleScenario.node[28].nic.mac1609_4 DroppedPacketsInMac 0
scalar RSUExampleScenario.node[28].nic.mac1609_4 TooLittleTime 0
scalar RSUExampleScenario.node[28].nic.mac1609_4 TimesIntoBackoff 1
scalar RSUExampleScenario.node[28].nic.mac1609_4 SlotsBackoff 1
scalar RSUExampleScenario.node[28].nic.mac1609_4 NumInternalContention 0
scalar RSUExampleScenario.node[28].nic.mac1609_4 totalBusyTime 0.003945
scalar RSUExampleScenario.node[28].veinsmobility startTime 85
scalar RSUExampleScenario.node[28].veinsmobility totalTime 115
scalar RSUExampleScenario.node[28].veinsmobility stopTime 200
scalar RSUExampleScenario.node[28].veinsmobility minSpeed 3.5919383473621
scalar RSUExampleScenario.node[28].veinsmobility maxSpeed 13.999430486427
scalar RSUExampleScenario.node[28].veinsmobility totalDistance 1000.2651098877
scalar RSUExampleScenario.node[28].veinsmobility totalCO2Emission 255.20509352493
scalar RSUExampleScenario.node[29].appl generatedWSMs 1
scalar RSUExampleScenario.node[29].appl receivedWSMs 20
scalar RSUExampleScenario.node[29].appl generatedBSMs 0
scalar RSUExampleScenario.node[29].appl receivedBSMs 0
scalar RSUExampleScenario.node[29].appl generatedWSAs 0
scalar RSUExampleScenario.node[29].appl receivedWSAs 0
scalar RSUExampleScenario.node[29].nic.phy80211p busyTime 4.1428571428571e-05
scalar RSUExampleScenario.node[29].nic.mac1609_4 ReceivedUnicastPackets 0
scalar RSUExampleScenario.node[29].nic.mac1609_4 ReceivedBroadcasts 20
scalar RSUExampleScenario.node[29].nic.mac1609_4 SentPackets 1
scalar RSUExampleScenario.node[29].nic.mac1609_4 SentAcknowledgements 0
scalar RSUExampleScenario.node[29].nic.mac1609_4 SNIRLostPackets 0
scalar RSUExampleScenario.node[29].nic.mac1609_4 RXTXLostPackets 0
scalar RSUExampleScenario.node[29].nic.mac1609_4 TotalLostPackets 0
scalar RSUExampleScenario.node[29].nic.mac1609_4 DroppedPacketsInMac 0
scalar RSUExampleScenario.node[29].nic.mac1609_4 TooLittleTime 0
scalar RSUExampleScenario.node[29].nic.mac1609_4 TimesIntoBackoff 1
scalar RSUExampleScenario.node[29].nic.mac1609_4 SlotsBackoff 1
scalar RSUExampleScenario.node[29].nic.mac1609_4 NumInternalContention 0
scalar RSUExampleScenario.node[29].nic.mac1609_4 totalBusyTime 0.004873
scalar RSUExampleScenario.node[29].veinsmobility startTime 88
scalar RSUExampleScenario.node[29].veinsmobility totalTime 112
scalar RSUExampleScenario.node[29].veinsmobility stopTime 200
scalar RSUExampleScenario.node[29].veinsmobility minSpeed 3.6098673289395
scalar RSUExampleScenario.node[29].veinsmobility maxSpeed 13.99867799808
scalar RSUExampleScenario.node[29].veinsmobility totalDistance 974.42748141891
scalar RSUExampleScenario.node[29].veinsmobility totalCO2Emission 239.96531955479
scalar RSUExampleScenario.node[3].appl generatedWSMs 1
scalar RSUExampleScenario.node[3].appl receivedWSMs 24
scalar RSUExampleScenario.node[3].appl generatedBSMs 0
scalar RSUExampleScenario.node[3].appl receivedBSMs 0
scalar RSUExampleScenario.node[3].appl generatedWSAs 0
scalar RSUExampleScenario.node[3].appl receivedWSAs 0
scalar RSUExampleScenario.node[3].nic.phy80211p busyTime 2.9305263157895e-05
scalar RSUExampleScenario.node[3].nic.mac1609_4 ReceivedUnicastPackets 0
scalar RSUExampleScenario.node[3].nic.mac1609_4 ReceivedBroadcasts 24
scalar RSUExampleScenario.node[3].nic.mac1609_4 SentPackets 1
scalar RSUExampleScenario.node[3].nic.mac1609_4 SentAcknowledgements 0
scalar RSUExampleScenario.node[3].nic.mac1609_4 SNIRLostPackets 0
scalar RSUExampleScenario.node[3].nic.mac1609_4 RXTXLostPackets 0
scalar RSUExampleScenario.node[3].nic.mac1609_4 TotalLostPackets 0
scalar RSUExampleScenario.node[3].nic.mac1609_4 DroppedPacketsInMac 0
scalar RSUExampleScenario.node[3].nic.mac1609_4 TooLittleTime 0
scalar RSUExampleScenario.node[3].nic.mac1609_4 TimesIntoBackoff 1
scalar RSUExampleScenario.node[3].nic.mac1609_4 SlotsBackoff 1
scalar RSUExampleScenario.node[3].nic.mac1609_4 NumInternalContention 0
scalar RSUExampleScenario.node[3].nic.mac1609_4 totalBusyTime 0.005801
scalar RSUExampleScenario.node[3].veinsmobility startTime 10
scalar RSUExampleScenario.node[3].veinsmobility totalTime 190
scalar RSUExampleScenario.node[3].veinsmobility stopTime 200
scalar RSUExampleScenario.node[3].veinsmobility minSpeed 0
scalar RSUExampleScenario.node[3].veinsmobility maxSpeed 13.997136535633
scalar RSUExampleScenario.node[3].veinsmobility totalDistance 1861.3585885233
scalar RSUExampleScenario.node[3].veinsmobility totalCO2Emission 393.77477951164
scalar RSUExampleScenario.node[30].appl generatedWSMs 1
scalar RSUExampleScenario.node[30].appl receivedWSMs 20
scalar RSUExampleScenario.node[30].appl generatedBSMs 0
scalar RSUExampleScenario.node[30].appl receivedBSMs 0
scalar RSUExampleScenario.node[30].appl generatedWSAs 0
scalar RSUExampleScenario.node[30].appl receivedWSAs 0
scalar RSUExampleScenario.node[30].nic.phy80211p busyTime 4.256880733945e-05
scalar RSUExampleScenario.node[30].nic.mac1609_4 ReceivedUnicastPackets 0
scalar RSUExampleScenario.node[30].nic.mac1609_4 ReceivedBroadcasts 20
scalar RSUExampleScenario.node[30].nic.mac1609_4 SentPackets 1
scalar RSUExampleScenario.node[30].nic.mac1609_4 SentAcknowledgements 0
scalar RSUExampleScenario.node[30].nic.mac1609_4 SNIRLostPackets 0
scalar RSUExampleScenario.node[30].nic.mac1609_4 RXTXLostPackets 0
scalar RSUExampleScenario.node[30].nic.mac1609_4 TotalLostPackets 0
scalar RSUExampleScenario.node[30].nic.mac1609_4 DroppedPacketsInMac 0
scalar RSUExampleScenario.node[30].nic.mac1609_4 TooLittleTime 0
scalar RSUExampleScenario.node[30].nic.mac1609_4 TimesIntoBackoff 1
scalar RSUExampleScenario.node[30].nic.mac1609_4 SlotsBackoff 1
scalar RSUExampleScenario.node[30].nic.mac1609_4 NumInternalContention 0
scalar RSUExampleScenario.node[30].nic.mac1609_4 totalBusyTime 0.004873
scalar RSUExampleScenario.node[30].veinsmobility startTime 91
scalar RSUExampleScenario.node[30].veinsmobility totalTime 109
scalar RSUExampleScenario.node[30].veinsmobility stopTime 200
scalar RSUExampleScenario.node[30].veinsmobility minSpeed 0
scalar RSUExampleScenario.node[30].veinsmobility maxSpeed 13.98242965386
scalar RSUExampleScenario.node[30].veinsmobility totalDistance 709.2483618648
scalar RSUExampleScenario.node[30].veinsmobility totalCO2Emission 195.05865318452
scalar RSUExampleScenario.node[31].appl generatedWSMs 1
scalar RSUExampleScenario.node[31].appl receivedWSMs 14
scalar RSUExampleScenario.node[31].appl generatedBSMs 0
scalar RSUExampleScenario.node[31].appl receivedBSMs 0
scalar RSUExampleScenario.node[31].appl generatedWSAs 0
scalar RSUExampleScenario.node[31].appl receivedWSAs 0
scalar RSUExampleScenario.node[31].nic.phy80211p busyTime 3.0641509433962e-05
scalar RSUExampleScenario.node[31].nic.mac1609_4 ReceivedUnicastPackets 0
scalar RSUExampleScenario.node[31].nic.mac1609_4 ReceivedBroadcasts 14
scalar RSUExampleScenario.node[31].nic.mac1609_4 SentPackets 1
scalar RSUExampleScenario.node[31].nic.mac1609_4 SentAcknowledgements 0
scalar RSUExampleScenario.node[31].nic.mac1609_4 SNIRLostPackets 0
scalar RSUExampleScenario.node[31].nic.mac1609_4 RXTXLostPackets 0
scalar RSUExampleScenario.node[31].nic.mac1609_4 TotalLostPackets 0
scalar RSUExampleScenario.node[31].nic.mac1609_4 DroppedPacketsInMac 0
scalar RSUExampleScenario.node[31].nic.mac1609_4 TooLittleTime 0
scalar RSUExampleScenario.node[31].nic.mac1609_4 TimesIntoBackoff 1
scalar RSUExampleScenario.node[31].nic.mac1609_4 SlotsBackoff 0
scalar RSUExampleScenario.node[31].nic.mac1609_4 NumInternalContention 0
scalar RSUExampleScenario.node[31].nic.mac1609_4 totalBusyTime 0.003481
scalar RSUExampleScenario.node[31].veinsmobility startTime 94
scalar RSUExampleScenario.node[31].veinsmobility totalTime 106
scalar RSUExampleScenario.node[31].veinsmobility stopTime 200
scalar RSUExampleScenario.node[31].veinsmobility minSpeed 0
scalar RSUExampleScenario.node[31].veinsmobility maxSpeed 13.983461481766
scalar RSUExampleScenario.node[31].veinsmobility totalDistance 668.66412835264
scalar RSUExampleScenario.node[31].veinsmobility totalCO2Emission 195.87900054948
scalar RSUExampleScenario.node[32].appl generatedWSMs 1
scalar RSUExampleScenario.node[32].appl receivedWSMs 12
scalar RSUExampleScenario.node[32].appl generatedBSMs 0
scalar RSUExampleScenario.node[32].appl receivedBSMs 0
scalar RSUExampleScenario.node[32].appl generatedWSAs 0
scalar RSUExampleScenario.node[32].appl receivedWSAs 0
scalar RSUExampleScenario.node[32].nic.phy80211p busyTime 2.7029126213592e-05
scalar RSUExampleScenario.node[32].nic.mac1609_4 ReceivedUnicastPackets 0
scalar RSUExampleScenario.node[32].nic.mac1609_4 ReceivedBroadcasts 12
scalar RSUExampleScenario.node[32].nic.mac1609_4 SentPackets 1
scalar RSUExampleScenario.node[32].nic.mac1609_4 SentAcknowledgements 0
scalar RSUExampleScenario.node[32].nic.mac1609_4 SNIRLostPackets 0
scalar RSUExampleScenario.node[32].nic.mac1609_4 RXTXLostPackets 0
scalar RSUExampleScenario.node[32].nic.mac1609_4 TotalLostPackets 0
scalar RSUExampleScenario.node[32].nic.mac1609_4 DroppedPacketsInMac 0
scalar RSUExampleScenario.node[32].nic.mac1609_4 TooLittleTime 0
scalar RSUExampleScenario.node[32].nic.mac1609_4 TimesIntoBackoff 1
scalar RSUExampleScenario.node[32].nic.mac1609_4 SlotsBackoff 3
scalar RSUExampleScenario.node[32].nic.mac1609_4 NumInternalContention 0
scalar RSUExampleScenario.node[32].nic.mac1609_4 totalBusyTime 0.003017
scalar RSUExampleScenario.node[32].veinsmobility startTime 97
scalar RSUExampleScenario.node[32].veinsmobility totalTime 103
scalar RSUExampleScenario.node[32].veinsmobility stopTime 200
scalar RSUExampleScenario.node[32].veinsmobility minSpeed 0
scalar RSUExampleScenario.node[32].veinsmobility maxSpeed 13.997201696427
scalar RSUExampleScenario.node[32].veinsmobility totalDistance 982.86292778459
scalar RSUExampleScenario.node[32].veinsmobility totalCO2Emission 242.11659616943
scalar RSUExampleScenario.node[33].appl generatedWSMs 1
scalar RSUExampleScenario.node[33].appl receivedWSMs 12
scalar RSUExampleScenario.node[33].appl generatedBSMs 0
scalar RSUExampleScenario.node[33].appl receivedBSMs 0
scalar RSUExampleScenario.node[33].appl generatedWSAs 0
scalar RSUExampleScenario.node[33].appl receivedWSAs 0
scalar RSUExampleScenario.node[33].nic.phy80211p busyTime 2.784e-05
scalar RSUExampleScenario.node[33].nic.mac1609_4 ReceivedUnicastPackets 0
scalar RSUExampleScenario.node[33].nic.mac1609_4 ReceivedBroadcasts 12
scalar RSUExampleScenario.node[33].nic.mac1609_4 SentPackets 1
scalar RSUExampleScenario.node[33].nic.mac1609_4 SentAcknowledgements 0
scalar RSUExampleScenario.node[33].nic.mac1609_4 SNIRLostPackets 0
scalar RSUExampleScenario.node[33].nic.mac1609_4 RXTXLostPackets 0
scalar RSUExampleScenario.node[33].nic.mac1609_4 TotalLostPackets 0
scalar RSUExampleScenario.node[33].nic.mac1609_4 DroppedPacketsInMac 0
scalar RSUExampleScenario.node[33].nic.mac1609_4 TooLittleTime 0
scalar RSUExampleScenario.node[33].nic.mac1609_4 TimesIntoBackoff 1
scalar RSUExampleScenario.node[33].nic.mac1609_4 SlotsBackoff 1
scalar RSUExampleScenario.node[33].nic.mac1609_4 NumInternalContention 0
scalar RSUExampleScenario.node[33].nic.mac1609_4 totalBusyTime 0.003017
scalar RSUExampleScenario.node[33].veinsmobility startTime 100
scalar RSUExampleScenario.node[33].veinsmobility totalTime 100
scalar RSUExampleScenario.node[33].veinsmobility stopTime 200
scalar RSUExampleScenario.node[33].veinsmobility minSpeed 0
scalar RSUExampleScenario.node[33].veinsmobility maxSpeed 13.994222689505
scalar RSUExampleScenario.node[33].veinsmobility totalDistance 954.4238149176
scalar RSUExampleScenario.node[33].veinsmobility totalCO2Emission 222.71536789289
scalar RSUExampleScenario.node[34].appl generatedWSMs 1
scalar RSUExampleScenario.node[34].appl receivedWSMs 12
scalar RSUExampleScenario.node[34].appl generatedBSMs 0
scalar RSUExampleScenario.node[34].appl receivedBSMs 0
scalar RSUExampleScenario.node[34].appl generatedWSAs 0
scalar RSUExampleScenario.node[34].appl receivedWSAs 0
scalar RSUExampleScenario.node[34].nic.phy80211p busyTime 2.8701030927835e-05
scalar RSUExampleScenario.node[34].nic.mac1609_4 ReceivedUnicastPackets 0
scalar RSUExampleScenario.node[34].nic.mac1609_4 ReceivedBroadcasts 12
scalar RSUExampleScenario.node[34].nic.mac1609_4 SentPackets 1
scalar RSUExampleScenario.node[34].nic.mac1609_4 SentAcknowledgements 0
scalar RSUExampleScenario.node[34].nic.mac1609_4 SNIRLostPackets 0
scalar RSUExampleScenario.node[34].nic.mac1609_4 RXTXLostPackets 0
scalar RSUExampleScenario.node[34].nic.mac1609_4 TotalLostPackets 0
scalar RSUExampleScenario.node[34].nic.mac1609_4 DroppedPacketsInMac 0
scalar RSUExampleScenario.node[34].nic.mac1609_4 TooLittleTime 0
scalar RSUExampleScenario.node[34].nic.mac1609_4 TimesIntoBackoff 1
scalar RSUExampleScenario.node[34].nic.mac1609_4 SlotsBackoff 0
scalar RSUExampleScenario.node[34].nic.mac1609_4 NumInternalContention 0
scalar RSUExampleScenario.node[34].nic.mac1609_4 totalBusyTime 0.003017
scalar RSUExampleScenario.node[34].veinsmobility startTime 103
scalar RSUExampleScenario.node[34].veinsmobility totalTime 97
scalar RSUExampleScenario.node[34].veinsmobility stopTime 200
scalar RSUExampleScenario.node[34].veinsmobility minSpeed 0
scalar RSUExampleScenario.node[34].veinsmobility maxSpeed 13.999646524282
scalar RSUExampleScenario.node[34].veinsmobility totalDistance 938.05711546501
scalar RSUExampleScenario.node[34].veinsmobility totalCO2Emission 205.92081493273
scalar RSUExampleScenario.node[35].appl generatedWSMs 1
scalar RSUExampleScenario.node[35].appl receivedWSMs 12
scalar RSUExampleScenario.node[35].appl generatedBSMs 0
scalar RSUExampleScenario.node[35].appl receivedBSMs 0
scalar RSUExampleScenario.node[35].appl generatedWSAs 0
scalar RSUExampleScenario.node[35].appl receivedWSAs 0
scalar RSUExampleScenario.node[35].nic.phy80211p busyTime 2.9617021276596e-05
scalar RSUExampleScenario.node[35].nic.mac1609_4 ReceivedUnicastPackets 0
scalar RSUExampleScenario.node[35].nic.mac1609_4 ReceivedBroadcasts 12
scalar RSUExampleScenario.node[35].nic.mac1609_4 SentPackets 1
scalar RSUExampleScenario.node[35].nic.mac1609_4 SentAcknowledgements 0
scalar RSUExampleScenario.node[35].nic.mac1609_4 SNIRLostPackets 0
scalar RSUExampleScenario.node[35].nic.mac1609_4 RXTXLostPackets 0
scalar RSUExampleScenario.node[35].nic.mac1609_4 TotalLostPackets 0
scalar RSUExampleScenario.node[35].nic.mac1609_4 DroppedPacketsInMac 0
scalar RSUExampleScenario.node[35].nic.mac1609_4 TooLittleTime 0
scalar RSUExampleScenario.node[35].nic.mac1609_4 TimesIntoBackoff 1
scalar RSUExampleScenario.node[35].nic.mac1609_4 SlotsBackoff 1
scalar RSUExampleScenario.node[35].nic.mac1609_4 NumInternalContention 0
scalar RSUExampleScenario.node[35].nic.mac1609_4 totalBusyTime 0.003017
scalar RSUExampleScenario.node[35].veinsmobility startTime 106
scalar RSUExampleScenario.node[35].veinsmobility totalTime 94
scalar RSUExampleScenario.node[35].veinsmobility stopTime 200
scalar RSUExampleScenario.node[35].veinsmobility minSpeed 0
scalar RSUExampleScenario.node[35].veinsmobility maxSpeed 13.998576476357
scalar RSUExampleScenario.node[35].veinsmobility totalDistance 926.67302661264
scalar RSUExampleScenario.node[35].veinsmobility totalCO2Emission 203.11788506417
scalar RSUExampleScenario.node[36].appl generatedWSMs 1
scalar RSUExampleScenario.node[36].appl receivedWSMs 12
scalar RSUExampleScenario.node[36].appl generatedBSMs 0
scalar RSUExampleScenario.node[36].appl receivedBSMs 0
scalar RSUExampleScenario.node[36].appl generatedWSAs 0
scalar RSUExampleScenario.node[36].appl receivedWSAs 0
scalar RSUExampleScenario.node[36].nic.phy80211p busyTime 3.0593406593407e-05
scalar RSUExampleScenario.node[36].nic.mac1609_4 ReceivedUnicastPackets 0
scalar RSUExampleScenario.node[36].nic.mac1609_4 ReceivedBroadcasts 12
scalar RSUExampleScenario.node[36].nic.mac1609_4 SentPackets 1
scalar RSUExampleScenario.node[36].nic.mac1609_4 SentAcknowledgements 0
scalar RSUExampleScenario.node[36].nic.mac1609_4 SNIRLostPackets 0
scalar RSUExampleScenario.node[36].nic.mac1609_4 RXTXLostPackets 0
scalar RSUExampleScenario.node[36].nic.mac1609_4 TotalLostPackets 0
scalar RSUExampleScenario.node[36].nic.mac1609_4 DroppedPacketsInMac 0
scalar RSUExampleScenario.node[36].nic.mac1609_4 TooLittleTime 0
scalar RSUExampleScenario.node[36].nic.mac1609_4 TimesIntoBackoff 1
scalar RSUExampleScenario.node[36].nic.mac1609_4 SlotsBackoff 0
scalar RSUExampleScenario.node[36].nic.mac1609_4 NumInternalContention 0
scalar RSUExampleScenario.node[36].nic.mac1609_4 totalBusyTime 0.003017
scalar RSUExampleScenario.node[36].veinsmobility startTime 109
scalar RSUExampleScenario.node[36].veinsmobility totalTime 91
scalar RSUExampleScenario.node[36].veinsmobility stopTime 200
scalar RSUExampleScenario.node[36].veinsmobility minSpeed 0
scalar RSUExampleScenario.node[36].veinsmobility maxSpeed 13.996137677643
scalar RSUExampleScenario.node[36].veinsmobility totalDistance 911.85832215463
scalar RSUExampleScenario.node[36].veinsmobility totalCO2Emission 200.33515325951
scalar RSUExampleScenario.node[37].appl generatedWSMs 1
scalar RSUExampleScenario.node[37].appl receivedWSMs 12
scalar RSUExampleScenario.node[37].appl generatedBSMs 0
scalar RSUExampleScenario.node[37].appl receivedBSMs 0
scalar RSUExampleScenario.node[37].appl generatedWSAs 0
scalar RSUExampleScenario.node[37].appl receivedWSAs 0
scalar RSUExampleScenario.node[37].nic.phy80211p busyTime 3.1636363636364e-05
scalar RSUExampleScenario.node[37].nic.mac1609_4 ReceivedUnicastPackets 0
scalar RSUExampleScenario.node[37].nic.mac1609_4 ReceivedBroadcasts 12
scalar RSUExampleScenario.node[37].nic.mac1609_4 SentPackets 1
scalar RSUExampleScenario.node[37].nic.mac1609_4 SentAcknowledgements 0
scalar RSUExampleScenario.node[37].nic.mac1609_4 SNIRLostPackets 0
scalar RSUExampleScenario.node[37].nic.mac1609_4 RXTXLostPackets 0
scalar RSUExampleScenario.node[37].nic.mac1609_4 TotalLostPackets 0
scalar RSUExampleScenario.node[37].nic.mac1609_4 DroppedPacketsInMac 0
scalar RSUExampleScenario.node[37].nic.mac1609_4 TooLittleTime 0
scalar RSUExampleScenario.node[37].nic.mac1609_4 TimesIntoBackoff 1
scalar RSUExampleScenario.node[37].nic.mac1609_4 SlotsBackoff 2
scalar RSUExampleScenario.node[37].nic.mac1609_4 NumInternalContention 0
scalar RSUExampleScenario.node[37].nic.mac1609_4 totalBusyTime 0.003017
scalar RSUExampleScenario.node[37].veinsmobility startTime 112
scalar RSUExampleScenario.node[37].veinsmobility totalTime 88
scalar RSUExampleScenario.node[37].veinsmobility stopTime 200
scalar RSUExampleScenario.node[37].veinsmobility minSpeed 0
scalar RSUExampleScenario.node[37].veinsmobility maxSpeed 13.98896676641
scalar RSUExampleScenario.node[37].veinsmobility totalDistance 894.17423305958
scalar RSUExampleScenario.node[37].veinsmobility totalCO2Emission 196.13143206196
scalar RSUExampleScenario.node[38].appl generatedWSMs 1
scalar RSUExampleScenario.node[38].appl receivedWSMs 12
scalar RSUExampleScenario.node[38].appl generatedBSMs 0
scalar RSUExampleScenario.node[38].appl receivedBSMs 0
scalar RSUExampleScenario.node[38].appl generatedWSAs 0
scalar RSUExampleScenario.node[38].appl receivedWSAs 0
scalar RSUExampleScenario.node[38].nic.phy80211p busyTime 3.2752941176471e-05
scalar RSUExampleScenario.node[38].nic.mac1609_4 ReceivedUnicastPackets 0
scalar RSUExampleScenario.node[38].nic.mac1609_4 ReceivedBroadcasts 12
scalar RSUExampleScenario.node[38].nic.mac1609_4 SentPackets 1
scalar RSUExampleScenario.node[38].nic.mac1609_4 SentAcknowledgements 0
scalar RSUExampleScenario.node[38].nic.mac1609_4 SNIRLostPackets 0
scalar RSUExampleScenario.node[38].nic.mac1609_4 RXTXLostPackets 0
scalar RSUExampleScenario.node[38].nic.mac1609_4 TotalLostPackets 0
scalar RSUExampleScenario.node[38].nic.mac1609_4 DroppedPacketsInMac 0
scalar RSUExampleScenario.node[38].nic.mac1609_4 TooLittleTime 0
scalar RSUExampleScenario.node[38].nic.mac1609_4 TimesIntoBackoff 1
scalar RSUExampleScenario.node[38].nic.mac1609_4 SlotsBackoff 1
scalar RSUExampleScenario.node[38].nic.mac1609_4 NumInternalContention 0
scalar RSUExampleScenario.node[38].nic.mac1609_4 totalBusyTime 0.003017
scalar RSUExampleScenario.node[38].veinsmobility startTime 115
scalar RSUExampleScenario.node[38].veinsmobility totalTime 85
scalar RSUExampleScenario.node[38].veinsmobility stopTime 200
scalar RSUExampleScenario.node[38].veinsmobility minSpeed 0
scalar RSUExampleScenario.node[38].veinsmobility maxSpeed 13.889310520939
scalar RSUExampleScenario.node[38].veinsmobility totalDistance 220.6344359929
scalar RSUExampleScenario.node[38].veinsmobility totalCO2Emission 123.42781855349
scalar RSUExampleScenario.node[39].appl generatedWSMs 1
scalar RSUExampleScenario.node[39].appl receivedWSMs 12
scalar RSUExampleScenario.node[39].appl generatedBSMs 0
scalar RSUExampleScenario.node[39].appl receivedBSMs 0
scalar RSUExampleScenario.node[39].appl generatedWSAs 0
scalar RSUExampleScenario.node[39].appl receivedWSAs 0
scalar RSUExampleScenario.node[39].nic.phy80211p busyTime 3.3951219512195e-05
scalar RSUExampleScenario.node[39].nic.mac1609_4 ReceivedUnicastPackets 0
scalar RSUExampleScenario.node[39].nic.mac1609_4 ReceivedBroadcasts 12
scalar RSUExampleScenario.node[39].nic.mac1609_4 SentPackets 1
scalar RSUExampleScenario.node[39].nic.mac1609_4 SentAcknowledgements 0
scalar RSUExampleScenario.node[39].nic.mac1609_4 SNIRLostPackets 0
scalar RSUExampleScenario.node[39].nic.mac1609_4 RXTXLostPackets 0
scalar RSUExampleScenario.node[39].nic.mac1609_4 TotalLostPackets 0
scalar RSUExampleScenario.node[39].nic.mac1609_4 DroppedPacketsInMac 0
scalar RSUExampleScenario.node[39].nic.mac1609_4 TooLittleTime 0
scalar RSUExampleScenario.node[39].nic.mac1609_4 TimesIntoBackoff 1
scalar RSUExampleScenario.node[39].nic.mac1609_4 SlotsBackoff 1
scalar RSUExampleScenario.node[39].nic.mac1609_4 NumInternalContention 0
scalar RSUExampleScenario.node[39].nic.mac1609_4 totalBusyTime 0.003017
scalar RSUExampleScenario.node[39].veinsmobility startTime 118
scalar RSUExampleScenario.node[39].veinsmobility totalTime 82
scalar RSUExampleScenario.node[39].veinsmobility stopTime 200
scalar RSUExampleScenario.node[39].veinsmobility minSpeed 0
scalar RSUExampleScenario.node[39].veinsmobility maxSpeed 13.880906640938
scalar RSUExampleScenario.node[39].veinsmobility totalDistance 212.30575276585
scalar RSUExampleScenario.node[39].veinsmobility totalCO2Emission 115.70435643654
scalar RSUExampleScenario.node[4].appl generatedWSMs 1
scalar RSUExampleScenario.node[4].appl receivedWSMs 24
scalar RSUExampleScenario.node[4].appl generatedBSMs 0
scalar RSUExampleScenario.node[4].appl receivedBSMs 0
scalar RSUExampleScenario.node[4].appl generatedWSAs 0
scalar RSUExampleScenario.node[4].appl receivedWSAs 0
scalar RSUExampleScenario.node[4].nic.phy80211p busyTime 2.9775401069519e-05
scalar RSUExampleScenario.node[4].nic.mac1609_4 ReceivedUnicastPackets 0
scalar RSUExampleScenario.node[4].nic.mac1609_4 ReceivedBroadcasts 24
scalar RSUExampleScenario.node[4].nic.mac1609_4 SentPackets 1
scalar RSUExampleScenario.node[4].nic.mac1609_4 SentAcknowledgements 0
scalar RSUExampleScenario.node[4].nic.mac1609_4 SNIRLostPackets 0
scalar RSUExampleScenario.node[4].nic.mac1609_4 RXTXLostPackets 0
scalar RSUExampleScenario.node[4].nic.mac1609_4 TotalLostPackets 0
scalar RSUExampleScenario.node[4].nic.mac1609_4 DroppedPacketsInMac 0
scalar RSUExampleScenario.node[4].nic.mac1609_4 TooLittleTime 0
scalar RSUExampleScenario.node[4].nic.mac1609_4 TimesIntoBackoff 1
scalar RSUExampleScenario.node[4].nic.mac1609_4 SlotsBackoff 1
scalar RSUExampleScenario.node[4].nic.mac1609_4 NumInternalContention 0
scalar RSUExampleScenario.node[4].nic.mac1609_4 totalBusyTime 0.005801
scalar RSUExampleScenario.node[4].veinsmobility startTime 13
scalar RSUExampleScenario.node[4].veinsmobility totalTime 187
scalar RSUExampleScenario.node[4].veinsmobility stopTime 200
scalar RSUExampleScenario.node[4].veinsmobility minSpeed 0
scalar RSUExampleScenario.node[4].veinsmobility maxSpeed 13.999783729354
scalar RSUExampleScenario.node[4].veinsmobility totalDistance 1833.226761807
scalar RSUExampleScenario.node[4].veinsmobility totalCO2Emission 390.57653063359
scalar RSUExampleScenario.node[40].appl generatedWSMs 1
scalar RSUExampleScenario.node[40].appl receivedWSMs 12
scalar RSUExampleScenario.node[40].appl generatedBSMs 0
scalar RSUExampleScenario.node[40].appl receivedBSMs 0
scalar RSUExampleScenario.node[40].appl generatedWSAs 0
scalar RSUExampleScenario.node[40].appl receivedWSAs 0
scalar RSUExampleScenario.node[40].nic.phy80211p busyTime 3.5240506329114e-05
scalar RSUExampleScenario.node[40].nic.mac1609_4 ReceivedUnicastPackets 0
scalar RSUExampleScenario.node[40].nic.mac1609_4 ReceivedBroadcasts 12
scalar RSUExampleScenario.node[40].nic.mac1609_4 SentPackets 1
scalar RSUExampleScenario.node[40].nic.mac1609_4 SentAcknowledgements 0
scalar RSUExampleScenario.node[40].nic.mac1609_4 SNIRLostPackets 0
scalar RSUExampleScenario.node[40].nic.mac1609_4 RXTXLostPackets 0
scalar RSUExampleScenario.node[40].nic.mac1609_4 TotalLostPackets 0
scalar RSUExampleScenario.node[40].nic.mac1609_4 DroppedPacketsInMac 0
scalar RSUExampleScenario.node[40].nic.mac1609_4 TooLittleTime 0
scalar RSUExampleScenario.node[40].nic.mac1609_4 TimesIntoBackoff 1
scalar RSUExampleScenario.node[40].nic.mac1609_4 SlotsBackoff 2
scalar RSUExampleScenario.node[40].nic.mac1609_4 NumInternalContention 0
scalar RSUExampleScenario.node[40].nic.mac1609_4 totalBusyTime 0.003017
scalar RSUExampleScenario.node[40].veinsmobility startTime 121
scalar RSUExampleScenario.node[40].veinsmobility totalTime 79
scalar RSUExampleScenario.node[40].veinsmobility stopTime 200
scalar RSUExampleScenario.node[40].veinsmobility minSpeed 0
scalar RSUExampleScenario.node[40].veinsmobility maxSpeed 13.888077727545
scalar RSUExampleScenario.node[40].veinsmobility totalDistance 956.94673902082
scalar RSUExampleScenario.node[40].veinsmobility totalCO2Emission 192.32102666351
scalar RSUExampleScenario.node[41].appl generatedWSMs 1
scalar RSUExampleScenario.node[41].appl receivedWSMs 12
scalar RSUExampleScenario.node[41].appl generatedBSMs 0
scalar RSUExampleScenario.node[41].appl receivedBSMs 0
scalar RSUExampleScenario.node[41].appl generatedWSAs 0
scalar RSUExampleScenario.node[41].appl receivedWSAs 0
scalar RSUExampleScenario.node[41].nic.phy80211p busyTime 3.6631578947368e-05
scalar RSUExampleScenario.node[41].nic.mac1609_4 ReceivedUnicastPackets 0
scalar RSUExampleScenario.node[41].nic.mac1609_4 ReceivedBroadcasts 12
scalar RSUExampleScenario.node[41].nic.mac1609_4 SentPackets 1
scalar RSUExampleScenario.node[41].nic.mac1609_4 SentAcknowledgements 0
scalar RSUExampleScenario.node[41].nic.mac1609_4 SNIRLostPackets 0
scalar RSUExampleScenario.node[41].nic.mac1609_4 RXTXLostPackets 0
scalar RSUExampleScenario.node[41].nic.mac1609_4 TotalLostPackets 0
scalar RSUExampleScenario.node[41].nic.mac1609_4 DroppedPacketsInMac 0
scalar RSUExampleScenario.node[41].nic.mac1609_4 TooLittleTime 0
scalar RSUExampleScenario.node[41].nic.mac1609_4 TimesIntoBackoff 1
scalar RSUExampleScenario.node[41].nic.mac1609_4 SlotsBackoff 0
scalar RSUExampleScenario.node[41].nic.mac1609_4 NumInternalContention 0
scalar RSUExampleScenario.node[41].nic.mac1609_4 totalBusyTime 0.003017
scalar RSUExampleScenario.node[41].veinsmobility startTime 124
scalar RSUExampleScenario.node[41].veinsmobility totalTime 76
scalar RSUExampleScenario.node[41].veinsmobility stopTime 200
scalar RSUExampleScenario.node[41].veinsmobility minSpeed 4.0976480233374
scalar RSUExampleScenario.node[41].veinsmobility maxSpeed 13.889469495229
scalar RSUExampleScenario.node[41].veinsmobility totalDistance 944.84977380882
scalar RSUExampleScenario.node[41].veinsmobility totalCO2Emission 185.88292055749
scalar RSUExampleScenario.node[42].appl generatedWSMs 1
scalar RSUExampleScenario.node[42].appl receivedWSMs 12
scalar RSUExampleScenario.node[42].appl generatedBSMs 0
scalar RSUExampleScenario.node[42].appl receivedBSMs 0
scalar RSUExampleScenario.node[42].appl generatedWSAs 0
scalar RSUExampleScenario.node[42].appl receivedWSAs 0
scalar RSUExampleScenario.node[42].nic.phy80211p busyTime 3.813698630137e-05
scalar RSUExampleScenario.node[42].nic.mac1609_4 ReceivedUnicastPackets 0
scalar RSUExampleScenario.node[42].nic.mac1609_4 ReceivedBroadcasts 12
scalar RSUExampleScenario.node[42].nic.mac1609_4 SentPackets 1
scalar RSUExampleScenario.node[42].nic.mac1609_4 SentAcknowledgements 0
scalar RSUExampleScenario.node[42].nic.mac1609_4 SNIRLostPackets 0
scalar RSUExampleScenario.node[42].nic.mac1609_4 RXTXLostPackets 0
scalar RSUExampleScenario.node[42].nic.mac1609_4 TotalLostPackets 0
scalar RSUExampleScenario.node[42].nic.mac1609_4 DroppedPacketsInMac 0
scalar RSUExampleScenario.node[42].nic.mac1609_4 TooLittleTime 0
scalar RSUExampleScenario.node[42].nic.mac1609_4 TimesIntoBackoff 1
scalar RSUExampleScenario.node[42].nic.mac1609_4 SlotsBackoff 3
scalar RSUExampleScenario.node[42].nic.mac1609_4 NumInternalContention 0
scalar RSUExampleScenario.node[42].nic.mac1609_4 totalBusyTime 0.003017
scalar RSUExampleScenario.node[42].veinsmobility startTime 127
scalar RSUExampleScenario.node[42].veinsmobility totalTime 73
scalar RSUExampleScenario.node[42].veinsmobility stopTime 200
scalar RSUExampleScenario.node[42].veinsmobility minSpeed 3.7812647622535
scalar RSUExampleScenario.node[42].veinsmobility maxSpeed 13.889780324479
scalar RSUExampleScenario.node[42].veinsmobility totalDistance 912.3719765888
scalar RSUExampleScenario.node[42].veinsmobility totalCO2Emission 181.55491284349
scalar RSUExampleScenario.node[43].appl generatedWSMs 1
scalar RSUExampleScenario.node[43].appl receivedWSMs 11
scalar RSUExampleScenario.node[43].appl generatedBSMs 0
scalar RSUExampleScenario.node[43].appl receivedBSMs 0
scalar RSUExampleScenario.node[43].appl generatedWSAs 0
scalar RSUExampleScenario.node[43].appl receivedWSAs 0
scalar RSUExampleScenario.node[43].nic.phy80211p busyTime 3.6457142857143e-05
scalar RSUExampleScenario.node[43].nic.mac1609_4 ReceivedUnicastPackets 0
scalar RSUExampleScenario.node[43].nic.mac1609_4 ReceivedBroadcasts 11
scalar RSUExampleScenario.node[43].nic.mac1609_4 SentPackets 1
scalar RSUExampleScenario.node[43].nic.mac1609_4 SentAcknowledgements 0
scalar RSUExampleScenario.node[43].nic.mac1609_4 SNIRLostPackets 0
scalar RSUExampleScenario.node[43].nic.mac1609_4 RXTXLostPackets 0
scalar RSUExampleScenario.node[43].nic.mac1609_4 TotalLostPackets 0
scalar RSUExampleScenario.node[43].nic.mac1609_4 DroppedPacketsInMac 0
scalar RSUExampleScenario.node[43].nic.mac1609_4 TooLittleTime 0
scalar RSUExampleScenario.node[43].nic.mac1609_4 TimesIntoBackoff 1
scalar RSUExampleScenario.node[43].nic.mac1609_4 SlotsBackoff 1
scalar RSUExampleScenario.node[43].nic.mac1609_4 NumInternalContention 0
scalar RSUExampleScenario.node[43].nic.mac1609_4 totalBusyTime 0.002785
scalar RSUExampleScenario.node[43].veinsmobility startTime 130
scalar RSUExampleScenario.node[43].veinsmobility totalTime 70
scalar RSUExampleScenario.node[43].veinsmobility stopTime 200
scalar RSUExampleScenario.node[43].veinsmobility minSpeed 4.0903854733885
scalar RSUExampleScenario.node[43].veinsmobility maxSpeed 13.888215186808
scalar RSUExampleScenario.node[43].veinsmobility totalDistance 872.46768589548
scalar RSUExampleScenario.node[43].veinsmobility totalCO2Emission 176.92714344929
scalar RSUExampleScenario.node[44].appl generatedWSMs 1
scalar RSUExampleScenario.node[44].appl receivedWSMs 1
scalar RSUExampleScenario.node[44].appl generatedBSMs 0
scalar RSUExampleScenario.node[44].appl receivedBSMs 0
scalar RSUExampleScenario.node[44].appl generatedWSAs 0
scalar RSUExampleScenario.node[44].appl receivedWSAs 0
scalar RSUExampleScenario.node[44].nic.phy80211p busyTime 3.4626865671642e-06
scalar RSUExampleScenario.node[44].nic.mac1609_4 ReceivedUnicastPackets 0
scalar RSUExampleScenario.node[44].nic.mac1609_4 ReceivedBroadcasts 1
scalar RSUExampleScenario.node[44].nic.mac1609_4 SentPackets 1
scalar RSUExampleScenario.node[44].nic.mac1609_4 SentAcknowledgements 0
scalar RSUExampleScenario.node[44].nic.mac1609_4 SNIRLostPackets 0
scalar RSUExampleScenario.node[44].nic.mac1609_4 RXTXLostPackets 0
scalar RSUExampleScenario.node[44].nic.mac1609_4 TotalLostPackets 0
scalar RSUExampleScenario.node[44].nic.mac1609_4 DroppedPacketsInMac 0
scalar RSUExampleScenario.node[44].nic.mac1609_4 TooLittleTime 0
scalar RSUExampleScenario.node[44].nic.mac1609_4 TimesIntoBackoff 1
scalar RSUExampleScenario.node[44].nic.mac1609_4 SlotsBackoff 0
scalar RSUExampleScenario.node[44].nic.mac1609_4 NumInternalContention 0
scalar RSUExampleScenario.node[44].nic.mac1609_4 totalBusyTime 0.000465
scalar RSUExampleScenario.node[44].veinsmobility startTime 133
scalar RSUExampleScenario.node[44].veinsmobility totalTime 67
scalar RSUExampleScenario.node[44].veinsmobility stopTime 200
scalar RSUExampleScenario.node[44].veinsmobility minSpeed 3.9867641138066
scalar RSUExampleScenario.node[44].veinsmobility maxSpeed 13.883739230388
scalar RSUExampleScenario.node[44].veinsmobility totalDistance 830.6688064176
scalar RSUExampleScenario.node[44].veinsmobility totalCO2Emission 170.53847849822
scalar RSUExampleScenario.node[45].appl generatedWSMs 0
scalar RSUExampleScenario.node[45].appl receivedWSMs 0
scalar RSUExampleScenario.node[45].appl generatedBSMs 0
scalar RSUExampleScenario.node[45].appl receivedBSMs 0
scalar RSUExampleScenario.node[45].appl generatedWSAs 0
scalar RSUExampleScenario.node[45].appl receivedWSAs 0
scalar RSUExampleScenario.node[45].nic.phy80211p busyTime 0
scalar RSUExampleScenario.node[45].nic.mac1609_4 ReceivedUnicastPackets 0
scalar RSUExampleScenario.node[45].nic.mac1609_4 ReceivedBroadcasts 0
scalar RSUExampleScenario.node[45].nic.mac1609_4 SentPackets 0
scalar RSUExampleScenario.node[45].nic.mac1609_4 SentAcknowledgements 0
scalar RSUExampleScenario.node[45].nic.mac1609_4 SNIRLostPackets 0
scalar RSUExampleScenario.node[45].nic.mac1609_4 RXTXLostPackets 0
scalar RSUExampleScenario.node[45].nic.mac1609_4 TotalLostPackets 0
scalar RSUExampleScenario.node[45].nic.mac1609_4 DroppedPacketsInMac 0
scalar RSUExampleScenario.node[45].nic.mac1609_4 TooLittleTime 0
scalar RSUExampleScenario.node[45].nic.mac1609_4 TimesIntoBackoff 0
scalar RSUExampleScenario.node[45].nic.mac1609_4 SlotsBackoff 0
scalar RSUExampleScenario.node[45].nic.mac1609_4 NumInternalContention 0
scalar RSUExampleScenario.node[45].nic.mac1609_4 totalBusyTime 0
scalar RSUExampleScenario.node[45].veinsmobility startTime 136
scalar RSUExampleScenario.node[45].veinsmobility totalTime 64
scalar RSUExampleScenario.node[45].veinsmobility stopTime 200
scalar RSUExampleScenario.node[45].veinsmobility minSpeed 3.6749621977563
scalar RSUExampleScenario.node[45].veinsmobility maxSpeed 13.999674507638
scalar RSUExampleScenario.node[45].veinsmobility totalDistance 807.34935780642
scalar RSUExampleScenario.node[45].veinsmobility totalCO2Emission 167.82755135369
scalar RSUExampleScenario.node[46].appl generatedWSMs 0
scalar RSUExampleScenario.node[46].appl receivedWSMs 0
scalar RSUExampleScenario.node[46].appl generatedBSMs 0
scalar RSUExampleScenario.node[46].appl receivedBSMs 0
scalar RSUExampleScenario.node[46].appl generatedWSAs 0
scalar RSUExampleScenario.node[46].appl receivedWSAs 0
scalar RSUExampleScenario.node[46].nic.phy80211p busyTime 0
scalar RSUExampleScenario.node[46].nic.mac1609_4 ReceivedUnicastPackets 0
scalar RSUExampleScenario.node[46].nic.mac1609_4 ReceivedBroadcasts 0
scalar RSUExampleScenario.node[46].nic.mac1609_4 SentPackets 0
scalar RSUExampleScenario.node[46].nic.mac1609_4 SentAcknowledgements 0
scalar RSUExampleScenario.node[46].nic.mac1609_4 SNIRLostPackets 0
scalar RSUExampleScenario.node[46].nic.mac1609_4 RXTXLostPackets 0
scalar RSUExampleScenario.node[46].nic.mac1609_4 TotalLostPackets 0
scalar RSUExampleScenario.node[46].nic.mac1609_4 DroppedPacketsInMac 0
scalar RSUExampleScenario.node[46].nic.mac1609_4 TooLittleTime 0
scalar RSUExampleScenario.node[46].nic.mac1609_4 TimesIntoBackoff 0
scalar RSUExampleScenario.node[46].nic.mac1609_4 SlotsBackoff 0
scalar RSUExampleScenario.node[46].nic.mac1609_4 NumInternalContention 0
scalar RSUExampleScenario.node[46].nic.mac1609_4 totalBusyTime 0
scalar RSUExampleScenario.node[46].veinsmobility startTime 139
scalar RSUExampleScenario.node[46].veinsmobility totalTime 61
scalar RSUExampleScenario.node[46].veinsmobility stopTime 200
scalar RSUExampleScenario.node[46].veinsmobility minSpeed 4.1118508944835
scalar RSUExampleScenario.node[46].veinsmobility maxSpeed 13.998254290198
scalar RSUExampleScenario.node[46].veinsmobility totalDistance 761.34711909176
scalar RSUExampleScenario.node[46].veinsmobility totalCO2Emission 159.6938689808
scalar RSUExampleScenario.node[47].appl generatedWSMs 0
scalar RSUExampleScenario.node[47].appl receivedWSMs 0
scalar RSUExampleScenario.node[47].appl generatedBSMs 0
scalar RSUExampleScenario.node[47].appl receivedBSMs 0
scalar RSUExampleScenario.node[47].appl generatedWSAs 0
scalar RSUExampleScenario.node[47].appl receivedWSAs 0
scalar RSUExampleScenario.node[47].nic.phy80211p busyTime 0
scalar RSUExampleScenario.node[47].nic.mac1609_4 ReceivedUnicastPackets 0
scalar RSUExampleScenario.node[47].nic.mac1609_4 ReceivedBroadcasts 0
scalar RSUExampleScenario.node[47].nic.mac1609_4 SentPackets 0
scalar RSUExampleScenario.node[47].nic.mac1609_4 SentAcknowledgements 0
scalar RSUExampleScenario.node[47].nic.mac1609_4 SNIRLostPackets 0
scalar RSUExampleScenario.node[47].nic.mac1609_4 RXTXLostPackets 0
scalar RSUExampleScenario.node[47].nic.mac1609_4 TotalLostPackets 0
scalar RSUExampleScenario.node[47].nic.mac1609_4 DroppedPacketsInMac 0
scalar RSUExampleScenario.node[47].nic.mac1609_4 TooLittleTime 0
scalar RSUExampleScenario.node[47].nic.mac1609_4 TimesIntoBackoff 0
scalar RSUExampleScenario.node[47].nic.mac1609_4 SlotsBackoff 0
scalar RSUExampleScenario.node[47].nic.mac1609_4 NumInternalContention 0
scalar RSUExampleScenario.node[47].nic.mac1609_4 totalBusyTime 0
scalar RSUExampleScenario.node[47].veinsmobility startTime 142
scalar RSUExampleScenario.node[47].veinsmobility totalTime 58
scalar RSUExampleScenario.node[47].veinsmobility stopTime 200
scalar RSUExampleScenario.node[47].veinsmobility minSpeed 4.1557610751902
scalar RSUExampleScenario.node[47].veinsmobility maxSpeed 13.997311542239
scalar RSUExampleScenario.node[47].veinsmobility totalDistance 715.38887092268
scalar RSUExampleScenario.node[47].veinsmobility totalCO2Emission 152.84454182947
scalar RSUExampleScenario.node[48].appl generatedWSMs 0
scalar RSUExampleScenario.node[48].appl receivedWSMs 0
scalar RSUExampleScenario.node[48].appl generatedBSMs 0
scalar RSUExampleScenario.node[48].appl receivedBSMs 0
scalar RSUExampleScenario.node[48].appl generatedWSAs 0
scalar RSUExampleScenario.node[48].appl receivedWSAs 0
scalar RSUExampleScenario.node[48].nic.phy80211p busyTime 0
scalar RSUExampleScenario.node[48].nic.mac1609_4 ReceivedUnicastPackets 0
scalar RSUExampleScenario.node[48].nic.mac1609_4 ReceivedBroadcasts 0
scalar RSUExampleScenario.node[48].nic.mac1609_4 SentPackets 0
scalar RSUExampleScenario.node[48].nic.mac1609_4 SentAcknowledgements 0
scalar RSUExampleScenario.node[48].nic.mac1609_4 SNIRLostPackets 0
[...]
scalar RSUExampleScenario.node[6].nic.mac1609_4 TotalLostPackets 0
scalar RSUExampleScenario.node[6].nic.mac1609_4 DroppedPacketsInMac 0
scalar RSUExampleScenario.node[6].nic.mac1609_4 TooLittleTime 0
scalar RSUExampleScenario.node[6].nic.mac1609_4 TimesIntoBackoff 1
scalar RSUExampleScenario.node[6].nic.mac1609_4 SlotsBackoff 0
scalar RSUExampleScenario.node[6].nic.mac1609_4 NumInternalContention 0
scalar RSUExampleScenario.node[6].nic.mac1609_4 totalBusyTime 0.006033
scalar RSUExampleScenario.node[6].veinsmobility startTime 19
scalar RSUExampleScenario.node[6].veinsmobility totalTime 181
scalar RSUExampleScenario.node[6].veinsmobility stopTime 200
scalar RSUExampleScenario.node[6].veinsmobility minSpeed 0
scalar RSUExampleScenario.node[6].veinsmobility maxSpeed 13.99905588744
scalar RSUExampleScenario.node[6].veinsmobility totalDistance 1775.2084695268
scalar RSUExampleScenario.node[6].veinsmobility totalCO2Emission 379.34631912538
scalar RSUExampleScenario.node[60].appl generatedWSMs 0
scalar RSUExampleScenario.node[60].appl receivedWSMs 0
scalar RSUExampleScenario.node[60].appl generatedBSMs 0
scalar RSUExampleScenario.node[60].appl receivedBSMs 0
scalar RSUExampleScenario.node[60].appl generatedWSAs 0
scalar RSUExampleScenario.node[60].appl receivedWSAs 0
scalar RSUExampleScenario.node[60].nic.phy80211p busyTime 0
scalar RSUExampleScenario.node[60].nic.mac1609_4 ReceivedUnicastPackets 0
scalar RSUExampleScenario.node[60].nic.mac1609_4 ReceivedBroadcasts 0
scalar RSUExampleScenario.node[60].nic.mac1609_4 SentPackets 0
scalar RSUExampleScenario.node[60].nic.mac1609_4 SentAcknowledgements 0
scalar RSUExampleScenario.node[60].nic.mac1609_4 SNIRLostPackets 0
scalar RSUExampleScenario.node[60].nic.mac1609_4 RXTXLostPackets 0
scalar RSUExampleScenario.node[60].nic.mac1609_4 TotalLostPackets 0
scalar RSUExampleScenario.node[60].nic.mac1609_4 DroppedPacketsInMac 0
scalar RSUExampleScenario.node[60].nic.mac1609_4 TooLittleTime 0
scalar RSUExampleScenario.node[60].nic.mac1609_4 TimesIntoBackoff 0
scalar RSUExampleScenario.node[60].nic.mac1609_4 SlotsBackoff 0
scalar RSUExampleScenario.node[60].nic.mac1609_4 NumInternalContention 0
scalar RSUExampleScenario.node[60].nic.mac1609_4 totalBusyTime 0
scalar RSUExampleScenario.node[60].veinsmobility startTime 181
scalar RSUExampleScenario.node[60].veinsmobility totalTime 19
scalar RSUExampleScenario.node[60].veinsmobility stopTime 200
scalar RSUExampleScenario.node[60].veinsmobility minSpeed 4.0949127586794
scalar RSUExampleScenario.node[60].veinsmobility maxSpeed 13.8860656679
scalar RSUExampleScenario.node[60].veinsmobility totalDistance 213.34814100492
scalar RSUExampleScenario.node[60].veinsmobility totalCO2Emission 53.505571468509
scalar RSUExampleScenario.node[61].appl generatedWSMs 0
scalar RSUExampleScenario.node[61].appl receivedWSMs 0
scalar RSUExampleScenario.node[61].appl generatedBSMs 0
scalar RSUExampleScenario.node[61].appl receivedBSMs 0
scalar RSUExampleScenario.node[61].appl generatedWSAs 0
scalar RSUExampleScenario.node[61].appl receivedWSAs 0
scalar RSUExampleScenario.node[61].nic.phy80211p busyTime 0
scalar RSUExampleScenario.node[61].nic.mac1609_4 ReceivedUnicastPackets 0
scalar RSUExampleScenario.node[61].nic.mac1609_4 ReceivedBroadcasts 0
scalar RSUExampleScenario.node[61].nic.mac1609_4 SentPackets 0
scalar RSUExampleScenario.node[61].nic.mac1609_4 SentAcknowledgements 0
scalar RSUExampleScenario.node[61].nic.mac1609_4 SNIRLostPackets 0
scalar RSUExampleScenario.node[61].nic.mac1609_4 RXTXLostPackets 0
scalar RSUExampleScenario.node[61].nic.mac1609_4 TotalLostPackets 0
scalar RSUExampleScenario.node[61].nic.mac1609_4 DroppedPacketsInMac 0
scalar RSUExampleScenario.node[61].nic.mac1609_4 TooLittleTime 0
scalar RSUExampleScenario.node[61].nic.mac1609_4 TimesIntoBackoff 0
scalar RSUExampleScenario.node[61].nic.mac1609_4 SlotsBackoff 0
scalar RSUExampleScenario.node[61].nic.mac1609_4 NumInternalContention 0
scalar RSUExampleScenario.node[61].nic.mac1609_4 totalBusyTime 0
scalar RSUExampleScenario.node[61].veinsmobility startTime 184
scalar RSUExampleScenario.node[61].veinsmobility totalTime 16
scalar RSUExampleScenario.node[61].veinsmobility stopTime 200
scalar RSUExampleScenario.node[61].veinsmobility minSpeed 4.047161942776
scalar RSUExampleScenario.node[61].veinsmobility maxSpeed 13.882791621028
scalar RSUExampleScenario.node[61].veinsmobility totalDistance 183.90002342264
scalar RSUExampleScenario.node[61].veinsmobility totalCO2Emission 50.928690195451
scalar RSUExampleScenario.node[62].appl generatedWSMs 0
scalar RSUExampleScenario.node[62].appl receivedWSMs 0
scalar RSUExampleScenario.node[62].appl generatedBSMs 0
scalar RSUExampleScenario.node[62].appl receivedBSMs 0
scalar RSUExampleScenario.node[62].appl generatedWSAs 0
scalar RSUExampleScenario.node[62].appl receivedWSAs 0
scalar RSUExampleScenario.node[62].nic.phy80211p busyTime 0
scalar RSUExampleScenario.node[62].nic.mac1609_4 ReceivedUnicastPackets 0
scalar RSUExampleScenario.node[62].nic.mac1609_4 ReceivedBroadcasts 0
scalar RSUExampleScenario.node[62].nic.mac1609_4 SentPackets 0
scalar RSUExampleScenario.node[62].nic.mac1609_4 SentAcknowledgements 0
scalar RSUExampleScenario.node[62].nic.mac1609_4 SNIRLostPackets 0
scalar RSUExampleScenario.node[62].nic.mac1609_4 RXTXLostPackets 0
scalar RSUExampleScenario.node[62].nic.mac1609_4 TotalLostPackets 0
scalar RSUExampleScenario.node[62].nic.mac1609_4 DroppedPacketsInMac 0
scalar RSUExampleScenario.node[62].nic.mac1609_4 TooLittleTime 0
scalar RSUExampleScenario.node[62].nic.mac1609_4 TimesIntoBackoff 0
scalar RSUExampleScenario.node[62].nic.mac1609_4 SlotsBackoff 0
scalar RSUExampleScenario.node[62].nic.mac1609_4 NumInternalContention 0
scalar RSUExampleScenario.node[62].nic.mac1609_4 totalBusyTime 0
scalar RSUExampleScenario.node[62].veinsmobility startTime 187
scalar RSUExampleScenario.node[62].veinsmobility totalTime 13
scalar RSUExampleScenario.node[62].veinsmobility stopTime 200
scalar RSUExampleScenario.node[62].veinsmobility minSpeed 4.0962905093764
scalar RSUExampleScenario.node[62].veinsmobility maxSpeed 13.889490627276
scalar RSUExampleScenario.node[62].veinsmobility totalDistance 144.36431902489
scalar RSUExampleScenario.node[62].veinsmobility totalCO2Emission 46.074882910807
scalar RSUExampleScenario.node[63].appl generatedWSMs 0
scalar RSUExampleScenario.node[63].appl receivedWSMs 0
scalar RSUExampleScenario.node[63].appl generatedBSMs 0
scalar RSUExampleScenario.node[63].appl receivedBSMs 0
scalar RSUExampleScenario.node[63].appl generatedWSAs 0
scalar RSUExampleScenario.node[63].appl receivedWSAs 0
scalar RSUExampleScenario.node[63].nic.phy80211p busyTime 0
scalar RSUExampleScenario.node[63].nic.mac1609_4 ReceivedUnicastPackets 0
scalar RSUExampleScenario.node[63].nic.mac1609_4 ReceivedBroadcasts 0
scalar RSUExampleScenario.node[63].nic.mac1609_4 SentPackets 0
scalar RSUExampleScenario.node[63].nic.mac1609_4 SentAcknowledgements 0
scalar RSUExampleScenario.node[63].nic.mac1609_4 SNIRLostPackets 0
scalar RSUExampleScenario.node[63].nic.mac1609_4 RXTXLostPackets 0
scalar RSUExampleScenario.node[63].nic.mac1609_4 TotalLostPackets 0
scalar RSUExampleScenario.node[63].nic.mac1609_4 DroppedPacketsInMac 0
scalar RSUExampleScenario.node[63].nic.mac1609_4 TooLittleTime 0
scalar RSUExampleScenario.node[63].nic.mac1609_4 TimesIntoBackoff 0
scalar RSUExampleScenario.node[63].nic.mac1609_4 SlotsBackoff 0
scalar RSUExampleScenario.node[63].nic.mac1609_4 NumInternalContention 0
scalar RSUExampleScenario.node[63].nic.mac1609_4 totalBusyTime 0
scalar RSUExampleScenario.node[63].veinsmobility startTime 190
scalar RSUExampleScenario.node[63].veinsmobility totalTime 10
scalar RSUExampleScenario.node[63].veinsmobility stopTime 200
scalar RSUExampleScenario.node[63].veinsmobility minSpeed 4.102320805062
scalar RSUExampleScenario.node[63].veinsmobility maxSpeed 13.868210956324
scalar RSUExampleScenario.node[63].veinsmobility totalDistance 104.55845750082
scalar RSUExampleScenario.node[63].veinsmobility totalCO2Emission 39.848161720695
scalar RSUExampleScenario.node[64].appl generatedWSMs 0
scalar RSUExampleScenario.node[64].appl receivedWSMs 0
scalar RSUExampleScenario.node[64].appl generatedBSMs 0
scalar RSUExampleScenario.node[64].appl receivedBSMs 0
scalar RSUExampleScenario.node[64].appl generatedWSAs 0
scalar RSUExampleScenario.node[64].appl receivedWSAs 0
scalar RSUExampleScenario.node[64].nic.phy80211p busyTime 0
scalar RSUExampleScenario.node[64].nic.mac1609_4 ReceivedUnicastPackets 0
scalar RSUExampleScenario.node[64].nic.mac1609_4 ReceivedBroadcasts 0
scalar RSUExampleScenario.node[64].nic.mac1609_4 SentPackets 0
scalar RSUExampleScenario.node[64].nic.mac1609_4 SentAcknowledgements 0
scalar RSUExampleScenario.node[64].nic.mac1609_4 SNIRLostPackets 0
scalar RSUExampleScenario.node[64].nic.mac1609_4 RXTXLostPackets 0
scalar RSUExampleScenario.node[64].nic.mac1609_4 TotalLostPackets 0
scalar RSUExampleScenario.node[64].nic.mac1609_4 DroppedPacketsInMac 0
scalar RSUExampleScenario.node[64].nic.mac1609_4 TooLittleTime 0
scalar RSUExampleScenario.node[64].nic.mac1609_4 TimesIntoBackoff 0
scalar RSUExampleScenario.node[64].nic.mac1609_4 SlotsBackoff 0
scalar RSUExampleScenario.node[64].nic.mac1609_4 NumInternalContention 0
scalar RSUExampleScenario.node[64].nic.mac1609_4 totalBusyTime 0
scalar RSUExampleScenario.node[64].veinsmobility startTime 193
scalar RSUExampleScenario.node[64].veinsmobility totalTime 7
scalar RSUExampleScenario.node[64].veinsmobility stopTime 200
scalar RSUExampleScenario.node[64].veinsmobility minSpeed 3.946662904151
scalar RSUExampleScenario.node[64].veinsmobility maxSpeed 13.791999720233
scalar RSUExampleScenario.node[64].veinsmobility totalDistance 61.43054977839
scalar RSUExampleScenario.node[64].veinsmobility totalCO2Emission 33.853803291892
scalar RSUExampleScenario.node[65].appl generatedWSMs 0
scalar RSUExampleScenario.node[65].appl receivedWSMs 0
scalar RSUExampleScenario.node[65].appl generatedBSMs 0
scalar RSUExampleScenario.node[65].appl receivedBSMs 0
scalar RSUExampleScenario.node[65].appl generatedWSAs 0
scalar RSUExampleScenario.node[65].appl receivedWSAs 0
scalar RSUExampleScenario.node[65].nic.phy80211p busyTime 0
scalar RSUExampleScenario.node[65].nic.mac1609_4 ReceivedUnicastPackets 0
scalar RSUExampleScenario.node[65].nic.mac1609_4 ReceivedBroadcasts 0
scalar RSUExampleScenario.node[65].nic.mac1609_4 SentPackets 0
scalar RSUExampleScenario.node[65].nic.mac1609_4 SentAcknowledgements 0
scalar RSUExampleScenario.node[65].nic.mac1609_4 SNIRLostPackets 0
scalar RSUExampleScenario.node[65].nic.mac1609_4 RXTXLostPackets 0
scalar RSUExampleScenario.node[65].nic.mac1609_4 TotalLostPackets 0
scalar RSUExampleScenario.node[65].nic.mac1609_4 DroppedPacketsInMac 0
scalar RSUExampleScenario.node[65].nic.mac1609_4 TooLittleTime 0
scalar RSUExampleScenario.node[65].nic.mac1609_4 TimesIntoBackoff 0
scalar RSUExampleScenario.node[65].nic.mac1609_4 SlotsBackoff 0
scalar RSUExampleScenario.node[65].nic.mac1609_4 NumInternalContention 0
scalar RSUExampleScenario.node[65].nic.mac1609_4 totalBusyTime 0
scalar RSUExampleScenario.node[65].veinsmobility startTime 196
scalar RSUExampleScenario.node[65].veinsmobility totalTime 4
scalar RSUExampleScenario.node[65].veinsmobility stopTime 200
scalar RSUExampleScenario.node[65].veinsmobility minSpeed 3.7363541982234
scalar RSUExampleScenario.node[65].veinsmobility maxSpeed 9.2686791859036
scalar RSUExampleScenario.node[65].veinsmobility totalDistance 22.649955638049
scalar RSUExampleScenario.node[65].veinsmobility totalCO2Emission 14.423484206001
scalar RSUExampleScenario.node[66].appl generatedWSMs 0
scalar RSUExampleScenario.node[66].appl receivedWSMs 0
scalar RSUExampleScenario.node[66].appl generatedBSMs 0
scalar RSUExampleScenario.node[66].appl receivedBSMs 0
scalar RSUExampleScenario.node[66].appl generatedWSAs 0
scalar RSUExampleScenario.node[66].appl receivedWSAs 0
scalar RSUExampleScenario.node[66].nic.phy80211p busyTime 0
scalar RSUExampleScenario.node[66].nic.mac1609_4 ReceivedUnicastPackets 0
scalar RSUExampleScenario.node[66].nic.mac1609_4 ReceivedBroadcasts 0
scalar RSUExampleScenario.node[66].nic.mac1609_4 SentPackets 0
scalar RSUExampleScenario.node[66].nic.mac1609_4 SentAcknowledgements 0
scalar RSUExampleScenario.node[66].nic.mac1609_4 SNIRLostPackets 0
scalar RSUExampleScenario.node[66].nic.mac1609_4 RXTXLostPackets 0
scalar RSUExampleScenario.node[66].nic.mac1609_4 TotalLostPackets 0
scalar RSUExampleScenario.node[66].nic.mac1609_4 DroppedPacketsInMac 0
scalar RSUExampleScenario.node[66].nic.mac1609_4 TooLittleTime 0
scalar RSUExampleScenario.node[66].nic.mac1609_4 TimesIntoBackoff 0
scalar RSUExampleScenario.node[66].nic.mac1609_4 SlotsBackoff 0
scalar RSUExampleScenario.node[66].nic.mac1609_4 NumInternalContention 0
scalar RSUExampleScenario.node[66].nic.mac1609_4 totalBusyTime 0
scalar RSUExampleScenario.node[66].veinsmobility startTime 199
scalar RSUExampleScenario.node[66].veinsmobility totalTime 1
scalar RSUExampleScenario.node[66].veinsmobility stopTime 200
scalar RSUExampleScenario.node[66].veinsmobility minSpeed 4.2123448143244
scalar RSUExampleScenario.node[66].veinsmobility maxSpeed 4.2123448143244
scalar RSUExampleScenario.node[66].veinsmobility totalDistance 3.2636786637574
scalar RSUExampleScenario.node[66].veinsmobility totalCO2Emission 0
scalar RSUExampleScenario.node[7].appl generatedWSMs 1
scalar RSUExampleScenario.node[7].appl receivedWSMs 25
scalar RSUExampleScenario.node[7].appl generatedBSMs 0
scalar RSUExampleScenario.node[7].appl receivedBSMs 0
scalar RSUExampleScenario.node[7].appl generatedWSAs 0
scalar RSUExampleScenario.node[7].appl receivedWSAs 0
scalar RSUExampleScenario.node[7].nic.phy80211p busyTime 3.5191011235955e-05
scalar RSUExampleScenario.node[7].nic.mac1609_4 ReceivedUnicastPackets 0
scalar RSUExampleScenario.node[7].nic.mac1609_4 ReceivedBroadcasts 25
scalar RSUExampleScenario.node[7].nic.mac1609_4 SentPackets 1
scalar RSUExampleScenario.node[7].nic.mac1609_4 SentAcknowledgements 0
scalar RSUExampleScenario.node[7].nic.mac1609_4 SNIRLostPackets 2
scalar RSUExampleScenario.node[7].nic.mac1609_4 RXTXLostPackets 0
scalar RSUExampleScenario.node[7].nic.mac1609_4 TotalLostPackets 2
scalar RSUExampleScenario.node[7].nic.mac1609_4 DroppedPacketsInMac 0
scalar RSUExampleScenario.node[7].nic.mac1609_4 TooLittleTime 0
scalar RSUExampleScenario.node[7].nic.mac1609_4 TimesIntoBackoff 1
scalar RSUExampleScenario.node[7].nic.mac1609_4 SlotsBackoff 0
scalar RSUExampleScenario.node[7].nic.mac1609_4 NumInternalContention 0
scalar RSUExampleScenario.node[7].nic.mac1609_4 totalBusyTime 0.006265
scalar RSUExampleScenario.node[7].veinsmobility startTime 22
scalar RSUExampleScenario.node[7].veinsmobility totalTime 178
scalar RSUExampleScenario.node[7].veinsmobility stopTime 200
scalar RSUExampleScenario.node[7].veinsmobility minSpeed 0
scalar RSUExampleScenario.node[7].veinsmobility maxSpeed 13.999802971166
scalar RSUExampleScenario.node[7].veinsmobility totalDistance 1745.1577353502
scalar RSUExampleScenario.node[7].veinsmobility totalCO2Emission 373.54352416796
scalar RSUExampleScenario.node[8].appl generatedWSMs 1
scalar RSUExampleScenario.node[8].appl receivedWSMs 26
scalar RSUExampleScenario.node[8].appl generatedBSMs 0
scalar RSUExampleScenario.node[8].appl receivedBSMs 0
scalar RSUExampleScenario.node[8].appl generatedWSAs 0
scalar RSUExampleScenario.node[8].appl receivedWSAs 0
scalar RSUExampleScenario.node[8].nic.phy80211p busyTime 3.712e-05
scalar RSUExampleScenario.node[8].nic.mac1609_4 ReceivedUnicastPackets 0
scalar RSUExampleScenario.node[8].nic.mac1609_4 ReceivedBroadcasts 26
scalar RSUExampleScenario.node[8].nic.mac1609_4 SentPackets 1
scalar RSUExampleScenario.node[8].nic.mac1609_4 SentAcknowledgements 0
scalar RSUExampleScenario.node[8].nic.mac1609_4 SNIRLostPackets 2
scalar RSUExampleScenario.node[8].nic.mac1609_4 RXTXLostPackets 0
scalar RSUExampleScenario.node[8].nic.mac1609_4 TotalLostPackets 2
scalar RSUExampleScenario.node[8].nic.mac1609_4 DroppedPacketsInMac 0
scalar RSUExampleScenario.node[8].nic.mac1609_4 TooLittleTime 0
scalar RSUExampleScenario.node[8].nic.mac1609_4 TimesIntoBackoff 1
scalar RSUExampleScenario.node[8].nic.mac1609_4 SlotsBackoff 3
scalar RSUExampleScenario.node[8].nic.mac1609_4 NumInternalContention 0
scalar RSUExampleScenario.node[8].nic.mac1609_4 totalBusyTime 0.006497
scalar RSUExampleScenario.node[8].veinsmobility startTime 25
scalar RSUExampleScenario.node[8].veinsmobility totalTime 175
scalar RSUExampleScenario.node[8].veinsmobility stopTime 200
scalar RSUExampleScenario.node[8].veinsmobility minSpeed 0
scalar RSUExampleScenario.node[8].veinsmobility maxSpeed 13.999432759099
scalar RSUExampleScenario.node[8].veinsmobility totalDistance 1716.9129307299
scalar RSUExampleScenario.node[8].veinsmobility totalCO2Emission 367.07772362529
scalar RSUExampleScenario.node[9].appl generatedWSMs 1
scalar RSUExampleScenario.node[9].appl receivedWSMs 27
scalar RSUExampleScenario.node[9].appl generatedBSMs 0
scalar RSUExampleScenario.node[9].appl receivedBSMs 0
scalar RSUExampleScenario.node[9].appl generatedWSAs 0
scalar RSUExampleScenario.node[9].appl receivedWSAs 0
scalar RSUExampleScenario.node[9].nic.phy80211p busyTime 3.9116279069767e-05
scalar RSUExampleScenario.node[9].nic.mac1609_4 ReceivedUnicastPackets 0
scalar RSUExampleScenario.node[9].nic.mac1609_4 ReceivedBroadcasts 27
scalar RSUExampleScenario.node[9].nic.mac1609_4 SentPackets 1
scalar RSUExampleScenario.node[9].nic.mac1609_4 SentAcknowledgements 0
scalar RSUExampleScenario.node[9].nic.mac1609_4 SNIRLostPackets 2
scalar RSUExampleScenario.node[9].nic.mac1609_4 RXTXLostPackets 0
scalar RSUExampleScenario.node[9].nic.mac1609_4 TotalLostPackets 2
scalar RSUExampleScenario.node[9].nic.mac1609_4 DroppedPacketsInMac 0
scalar RSUExampleScenario.node[9].nic.mac1609_4 TooLittleTime 0
scalar RSUExampleScenario.node[9].nic.mac1609_4 TimesIntoBackoff 1
scalar RSUExampleScenario.node[9].nic.mac1609_4 SlotsBackoff 0
scalar RSUExampleScenario.node[9].nic.mac1609_4 NumInternalContention 0
scalar RSUExampleScenario.node[9].nic.mac1609_4 totalBusyTime 0.006729
scalar RSUExampleScenario.node[9].veinsmobility startTime 28
scalar RSUExampleScenario.node[9].veinsmobility totalTime 172
scalar RSUExampleScenario.node[9].veinsmobility stopTime 200
scalar RSUExampleScenario.node[9].veinsmobility minSpeed 0
scalar RSUExampleScenario.node[9].veinsmobility maxSpeed 13.998528669409
scalar RSUExampleScenario.node[9].veinsmobility totalDistance 1688.0352708141
scalar RSUExampleScenario.node[9].veinsmobility totalCO2Emission 362.65018780931
scalar RSUExampleScenario.manager roiArea 0
scalar RSUExampleScenario.rsu[0].appl generatedWSMs 10
scalar RSUExampleScenario.rsu[0].appl receivedWSMs 10
scalar RSUExampleScenario.rsu[0].appl generatedBSMs 0
scalar RSUExampleScenario.rsu[0].appl receivedBSMs 0
scalar RSUExampleScenario.rsu[0].appl generatedWSAs 0
scalar RSUExampleScenario.rsu[0].appl receivedWSAs 0
scalar RSUExampleScenario.rsu[0].nic.phy80211p busyTime 1.16e-05
scalar RSUExampleScenario.rsu[0].nic.mac1609_4 ReceivedUnicastPackets 0
scalar RSUExampleScenario.rsu[0].nic.mac1609_4 ReceivedBroadcasts 10
scalar RSUExampleScenario.rsu[0].nic.mac1609_4 SentPackets 10
scalar RSUExampleScenario.rsu[0].nic.mac1609_4 SentAcknowledgements 0
scalar RSUExampleScenario.rsu[0].nic.mac1609_4 SNIRLostPackets 0
scalar RSUExampleScenario.rsu[0].nic.mac1609_4 RXTXLostPackets 0
scalar RSUExampleScenario.rsu[0].nic.mac1609_4 TotalLostPackets 0
scalar RSUExampleScenario.rsu[0].nic.mac1609_4 DroppedPacketsInMac 0
scalar RSUExampleScenario.rsu[0].nic.mac1609_4 TooLittleTime 0
scalar RSUExampleScenario.rsu[0].nic.mac1609_4 TimesIntoBackoff 10
scalar RSUExampleScenario.rsu[0].nic.mac1609_4 SlotsBackoff 15
scalar RSUExampleScenario.rsu[0].nic.mac1609_4 NumInternalContention 0
scalar RSUExampleScenario.rsu[0].nic.mac1609_4 totalBusyTime 0.00465

