version 2
run Default-0-20200717-10:54:59-4449
attr configname Default
attr datetime 20200717-10:54:59
attr experiment Default
attr inifile omnetpp.ini
attr iterationvars ""
attr iterationvarsf ""
attr measurement ""
attr network RSUExampleScenario
attr processid 4449
attr repetition 0
attr replication #0
attr resultdir results
attr runnumber 0
attr seedset 0
param **.debug false
param **.coreDebug false
param *.playgroundSizeX 2500m
param *.playgroundSizeY 2500m
param *.playgroundSizeZ 50m
param *.annotations.draw true
param *.obstacles.debug false
param *.obstacles.obstacles "xmldoc(\"config.xml\", \"//AnalogueModel[@type='SimpleObstacleShadowing']/obstacles\")"
param *.manager.updateInterval 1s
param *.manager.host "\"localhost\""
param *.manager.port 9999
param *.manager.autoShutdown true
param *.manager.launchConfig "xmldoc(\"erlangen.launchd.xml\")"
param *.rsu[0].mobility.x 2000
param *.rsu[0].mobility.y 2000
param *.rsu[0].mobility.z 3
param *.rsu[*].applType "\"TraCIDemoRSU11p\""
param *.rsu[*].appl.headerLength "80 bit"
param *.rsu[*].appl.sendBeacons false
param *.rsu[*].appl.dataOnSch false
param *.rsu[*].appl.beaconInterval 1s
param *.rsu[*].appl.beaconUserPriority 7
param *.rsu[*].appl.dataUserPriority 5
param *.connectionManager.sendDirect true
param *.connectionManager.maxInterfDist 2600m
param *.connectionManager.drawMaxIntfDist false
param *.**.nic.mac1609_4.useServiceChannel false
param *.**.nic.mac1609_4.txPower 20mW
param *.**.nic.mac1609_4.bitrate 6Mbps
param *.**.nic.phy80211p.sensitivity -89dBm
param *.**.nic.phy80211p.useThermalNoise true
param *.**.nic.phy80211p.thermalNoise -110dBm
param *.**.nic.phy80211p.decider "xmldoc(\"config.xml\")"
param *.**.nic.phy80211p.analogueModels "xmldoc(\"config.xml\")"
param *.**.nic.phy80211p.usePropagationDelay true
param *.**.nic.phy80211p.antenna "xmldoc(\"antenna.xml\", \"/root/Antenna[@id='monopole']\")"
param *.node[*].applType "\"TraCIDemo11p\""
param *.node[*].appl.headerLength "80 bit"
param *.node[*].appl.sendBeacons false
param *.node[*].appl.dataOnSch false
param *.node[*].appl.beaconInterval 1s
param *.node[*].veinsmobilityType.debug true
param *.node[*].veinsmobility.x 0
param *.node[*].veinsmobility.y 0
param *.node[*].veinsmobility.z 1.895
param *.node[*0].veinsmobility.accidentCount 1
param *.node[*0].veinsmobility.accidentStart 75s
param *.node[*0].veinsmobility.accidentDuration 50s

vector 0 RSUExampleScenario.node[0].veinsmobility posx ETV
vector 1 RSUExampleScenario.node[0].veinsmobility posy ETV
vector 2 RSUExampleScenario.node[0].veinsmobility speed ETV
vector 3 RSUExampleScenario.node[0].veinsmobility acceleration ETV
vector 4 RSUExampleScenario.node[0].veinsmobility co2emission ETV
vector 5 RSUExampleScenario.node[1].veinsmobility posx ETV
vector 6 RSUExampleScenario.node[1].veinsmobility posy ETV
vector 7 RSUExampleScenario.node[1].veinsmobility speed ETV
vector 8 RSUExampleScenario.node[1].veinsmobility acceleration ETV
vector 9 RSUExampleScenario.node[1].veinsmobility co2emission ETV
vector 10 RSUExampleScenario.node[2].veinsmobility posx ETV
vector 11 RSUExampleScenario.node[2].veinsmobility posy ETV
vector 12 RSUExampleScenario.node[2].veinsmobility speed ETV
vector 13 RSUExampleScenario.node[2].veinsmobility acceleration ETV
vector 14 RSUExampleScenario.node[2].veinsmobility co2emission ETV
vector 15 RSUExampleScenario.node[3].veinsmobility posx ETV
vector 16 RSUExampleScenario.node[3].veinsmobility posy ETV
vector 17 RSUExampleScenario.node[3].veinsmobility speed ETV
vector 18 RSUExampleScenario.node[3].veinsmobility acceleration ETV
vector 19 RSUExampleScenario.node[3].veinsmobility co2emission ETV
vector 20 RSUExampleScenario.node[4].veinsmobility posx ETV
vector 21 RSUExampleScenario.node[4].veinsmobility posy ETV
vector 22 RSUExampleScenario.node[4].veinsmobility speed ETV
vector 23 RSUExampleScenario.node[4].veinsmobility acceleration ETV
vector 24 RSUExampleScenario.node[4].veinsmobility co2emission ETV
vector 25 RSUExampleScenario.node[5].veinsmobility posx ETV
vector 26 RSUExampleScenario.node[5].veinsmobility posy ETV
vector 27 RSUExampleScenario.node[5].veinsmobility speed ETV
vector 28 RSUExampleScenario.node[5].veinsmobility acceleration ETV
vector 29 RSUExampleScenario.node[5].veinsmobility co2emission ETV
vector 30 RSUExampleScenario.node[6].veinsmobility posx ETV
vector 31 RSUExampleScenario.node[6].veinsmobility posy ETV
vector 32 RSUExampleScenario.node[6].veinsmobility speed ETV
vector 33 RSUExampleScenario.node[6].veinsmobility acceleration ETV
vector 34 RSUExampleScenario.node[6].veinsmobility co2emission ETV
vector 35 RSUExampleScenario.node[7].veinsmobility posx ETV
vector 36 RSUExampleScenario.node[7].veinsmobility posy ETV
vector 37 RSUExampleScenario.node[7].veinsmobility speed ETV
vector 38 RSUExampleScenario.node[7].veinsmobility acceleration ETV
vector 39 RSUExampleScenario.node[7].veinsmobility co2emission ETV
vector 40 RSUExampleScenario.node[8].veinsmobility posx ETV
vector 41 RSUExampleScenario.node[8].veinsmobility posy ETV
vector 42 RSUExampleScenario.node[8].veinsmobility speed ETV
vector 43 RSUExampleScenario.node[8].veinsmobility acceleration ETV
vector 44 RSUExampleScenario.node[8].veinsmobility co2emission ETV
vector 45 RSUExampleScenario.node[9].veinsmobility posx ETV
vector 46 RSUExampleScenario.node[9].veinsmobility posy ETV
vector 47 RSUExampleScenario.node[9].veinsmobility speed ETV
vector 48 RSUExampleScenario.node[9].veinsmobility acceleration ETV
vector 49 RSUExampleScenario.node[9].veinsmobility co2emission ETV
vector 50 RSUExampleScenario.node[10].veinsmobility posx ETV
vector 51 RSUExampleScenario.node[10].veinsmobility posy ETV
vector 52 RSUExampleScenario.node[10].veinsmobility speed ETV
vector 53 RSUExampleScenario.node[10].veinsmobility acceleration ETV
vector 54 RSUExampleScenario.node[10].veinsmobility co2emission ETV
vector 55 RSUExampleScenario.node[11].veinsmobility posx ETV
vector 56 RSUExampleScenario.node[11].veinsmobility posy ETV
vector 57 RSUExampleScenario.node[11].veinsmobility speed ETV
vector 58 RSUExampleScenario.node[11].veinsmobility acceleration ETV
vector 59 RSUExampleScenario.node[11].veinsmobility co2emission ETV
vector 60 RSUExampleScenario.node[12].veinsmobility posx ETV
vector 61 RSUExampleScenario.node[12].veinsmobility posy ETV
vector 62 RSUExampleScenario.node[12].veinsmobility speed ETV
vector 63 RSUExampleScenario.node[12].veinsmobility acceleration ETV
vector 64 RSUExampleScenario.node[12].veinsmobility co2emission ETV
vector 65 RSUExampleScenario.node[13].veinsmobility posx ETV
vector 66 RSUExampleScenario.node[13].veinsmobility posy ETV
vector 67 RSUExampleScenario.node[13].veinsmobility speed ETV
vector 68 RSUExampleScenario.node[13].veinsmobility acceleration ETV
vector 69 RSUExampleScenario.node[13].veinsmobility co2emission ETV
vector 70 RSUExampleScenario.node[14].veinsmobility posx ETV
vector 71 RSUExampleScenario.node[14].veinsmobility posy ETV
vector 72 RSUExampleScenario.node[14].veinsmobility speed ETV
vector 73 RSUExampleScenario.node[14].veinsmobility acceleration ETV
vector 74 RSUExampleScenario.node[14].veinsmobility co2emission ETV
vector 75 RSUExampleScenario.node[15].veinsmobility posx ETV
vector 76 RSUExampleScenario.node[15].veinsmobility posy ETV
vector 77 RSUExampleScenario.node[15].veinsmobility speed ETV
vector 78 RSUExampleScenario.node[15].veinsmobility acceleration ETV
vector 79 RSUExampleScenario.node[15].veinsmobility co2emission ETV
vector 80 RSUExampleScenario.node[16].veinsmobility posx ETV
vector 81 RSUExampleScenario.node[16].veinsmobility posy ETV
vector 82 RSUExampleScenario.node[16].veinsmobility speed ETV
vector 83 RSUExampleScenario.node[16].veinsmobility acceleration ETV
vector 84 RSUExampleScenario.node[16].veinsmobility co2emission ETV
vector 85 RSUExampleScenario.node[17].veinsmobility posx ETV
vector 86 RSUExampleScenario.node[17].veinsmobility posy ETV
vector 87 RSUExampleScenario.node[17].veinsmobility speed ETV
vector 88 RSUExampleScenario.node[17].veinsmobility acceleration ETV
vector 89 RSUExampleScenario.node[17].veinsmobility co2emission ETV
vector 90 RSUExampleScenario.node[18].veinsmobility posx ETV
vector 91 RSUExampleScenario.node[18].veinsmobility posy ETV
vector 92 RSUExampleScenario.node[18].veinsmobility speed ETV
vector 93 RSUExampleScenario.node[18].veinsmobility acceleration ETV
vector 94 RSUExampleScenario.node[18].veinsmobility co2emission ETV
vector 95 RSUExampleScenario.node[19].veinsmobility posx ETV
vector 96 RSUExampleScenario.node[19].veinsmobility posy ETV
vector 97 RSUExampleScenario.node[19].veinsmobility speed ETV
vector 98 RSUExampleScenario.node[19].veinsmobility acceleration ETV
vector 99 RSUExampleScenario.node[19].veinsmobility co2emission ETV
vector 100 RSUExampleScenario.node[20].veinsmobility posx ETV
vector 101 RSUExampleScenario.node[20].veinsmobility posy ETV
vector 102 RSUExampleScenario.node[20].veinsmobility speed ETV
vector 103 RSUExampleScenario.node[20].veinsmobility acceleration ETV
vector 104 RSUExampleScenario.node[20].veinsmobility co2emission ETV
vector 105 RSUExampleScenario.node[21].veinsmobility posx ETV
vector 106 RSUExampleScenario.node[21].veinsmobility posy ETV
vector 107 RSUExampleScenario.node[21].veinsmobility speed ETV
vector 108 RSUExampleScenario.node[21].veinsmobility acceleration ETV
vector 109 RSUExampleScenario.node[21].veinsmobility co2emission ETV
vector 110 RSUExampleScenario.node[22].veinsmobility posx ETV
vector 111 RSUExampleScenario.node[22].veinsmobility posy ETV
vector 112 RSUExampleScenario.node[22].veinsmobility speed ETV
vector 113 RSUExampleScenario.node[22].veinsmobility acceleration ETV
vector 114 RSUExampleScenario.node[22].veinsmobility co2emission ETV
vector 115 RSUExampleScenario.node[23].veinsmobility posx ETV
vector 116 RSUExampleScenario.node[23].veinsmobility posy ETV
vector 117 RSUExampleScenario.node[23].veinsmobility speed ETV
vector 118 RSUExampleScenario.node[23].veinsmobility acceleration ETV
vector 119 RSUExampleScenario.node[23].veinsmobility co2emission ETV
vector 120 RSUExampleScenario.node[24].veinsmobility posx ETV
vector 121 RSUExampleScenario.node[24].veinsmobility posy ETV
vector 122 RSUExampleScenario.node[24].veinsmobility speed ETV
vector 123 RSUExampleScenario.node[24].veinsmobility acceleration ETV
vector 124 RSUExampleScenario.node[24].veinsmobility co2emission ETV
vector 125 RSUExampleScenario.node[25].veinsmobility posx ETV
vector 126 RSUExampleScenario.node[25].veinsmobility posy ETV
vector 127 RSUExampleScenario.node[25].veinsmobility speed ETV
vector 128 RSUExampleScenario.node[25].veinsmobility acceleration ETV
vector 129 RSUExampleScenario.node[25].veinsmobility co2emission ETV
vector 130 RSUExampleScenario.node[26].veinsmobility posx ETV
vector 131 RSUExampleScenario.node[26].veinsmobility posy ETV
vector 132 RSUExampleScenario.node[26].veinsmobility speed ETV
vector 133 RSUExampleScenario.node[26].veinsmobility acceleration ETV
vector 134 RSUExampleScenario.node[26].veinsmobility co2emission ETV
vector 135 RSUExampleScenario.node[27].veinsmobility posx ETV
vector 136 RSUExampleScenario.node[27].veinsmobility posy ETV
vector 137 RSUExampleScenario.node[27].veinsmobility speed ETV
vector 138 RSUExampleScenario.node[27].veinsmobility acceleration ETV
vector 139 RSUExampleScenario.node[27].veinsmobility co2emission ETV
vector 140 RSUExampleScenario.node[28].veinsmobility posx ETV
vector 141 RSUExampleScenario.node[28].veinsmobility posy ETV
vector 142 RSUExampleScenario.node[28].veinsmobility speed ETV
vector 143 RSUExampleScenario.node[28].veinsmobility acceleration ETV
vector 144 RSUExampleScenario.node[28].veinsmobility co2emission ETV
vector 145 RSUExampleScenario.node[29].veinsmobility posx ETV
vector 146 RSUExampleScenario.node[29].veinsmobility posy ETV
vector 147 RSUExampleScenario.node[29].veinsmobility speed ETV
vector 148 RSUExampleScenario.node[29].veinsmobility acceleration ETV
vector 149 RSUExampleScenario.node[29].veinsmobility co2emission ETV
vector 150 RSUExampleScenario.node[30].veinsmobility posx ETV
vector 151 RSUExampleScenario.node[30].veinsmobility posy ETV
vector 152 RSUExampleScenario.node[30].veinsmobility speed ETV
vector 153 RSUExampleScenario.node[30].veinsmobility acceleration ETV
vector 154 RSUExampleScenario.node[30].veinsmobility co2emission ETV
vector 155 RSUExampleScenario.node[31].veinsmobility posx ETV
vector 156 RSUExampleScenario.node[31].veinsmobility posy ETV
vector 157 RSUExampleScenario.node[31].veinsmobility speed ETV
vector 158 RSUExampleScenario.node[31].veinsmobility acceleration ETV
vector 159 RSUExampleScenario.node[31].veinsmobility co2emission ETV
vector 160 RSUExampleScenario.node[32].veinsmobility posx ETV
vector 161 RSUExampleScenario.node[32].veinsmobility posy ETV
vector 162 RSUExampleScenario.node[32].veinsmobility speed ETV
vector 163 RSUExampleScenario.node[32].veinsmobility acceleration ETV
vector 164 RSUExampleScenario.node[32].veinsmobility co2emission ETV
vector 165 RSUExampleScenario.node[33].veinsmobility posx ETV
vector 166 RSUExampleScenario.node[33].veinsmobility posy ETV
vector 167 RSUExampleScenario.node[33].veinsmobility speed ETV
vector 168 RSUExampleScenario.node[33].veinsmobility acceleration ETV
vector 169 RSUExampleScenario.node[33].veinsmobility co2emission ETV
vector 170 RSUExampleScenario.node[34].veinsmobility posx ETV
vector 171 RSUExampleScenario.node[34].veinsmobility posy ETV
vector 172 RSUExampleScenario.node[34].veinsmobility speed ETV
vector 173 RSUExampleScenario.node[34].veinsmobility acceleration ETV
vector 174 RSUExampleScenario.node[34].veinsmobility co2emission ETV
vector 175 RSUExampleScenario.node[35].veinsmobility posx ETV
vector 176 RSUExampleScenario.node[35].veinsmobility posy ETV
vector 177 RSUExampleScenario.node[35].veinsmobility speed ETV
vector 178 RSUExampleScenario.node[35].veinsmobility acceleration ETV
vector 179 RSUExampleScenario.node[35].veinsmobility co2emission ETV
vector 180 RSUExampleScenario.node[36].veinsmobility posx ETV
vector 181 RSUExampleScenario.node[36].veinsmobility posy ETV
vector 182 RSUExampleScenario.node[36].veinsmobility speed ETV
vector 183 RSUExampleScenario.node[36].veinsmobility acceleration ETV
vector 184 RSUExampleScenario.node[36].veinsmobility co2emission ETV
vector 185 RSUExampleScenario.node[37].veinsmobility posx ETV
vector 186 RSUExampleScenario.node[37].veinsmobility posy ETV
vector 187 RSUExampleScenario.node[37].veinsmobility speed ETV
vector 188 RSUExampleScenario.node[37].veinsmobility acceleration ETV
vector 189 RSUExampleScenario.node[37].veinsmobility co2emission ETV
vector 190 RSUExampleScenario.node[38].veinsmobility posx ETV
vector 191 RSUExampleScenario.node[38].veinsmobility posy ETV
vector 192 RSUExampleScenario.node[38].veinsmobility speed ETV
vector 193 RSUExampleScenario.node[38].veinsmobility acceleration ETV
vector 194 RSUExampleScenario.node[38].veinsmobility co2emission ETV
vector 195 RSUExampleScenario.node[39].veinsmobility posx ETV
vector 196 RSUExampleScenario.node[39].veinsmobility posy ETV
vector 197 RSUExampleScenario.node[39].veinsmobility speed ETV
vector 198 RSUExampleScenario.node[39].veinsmobility acceleration ETV
vector 199 RSUExampleScenario.node[39].veinsmobility co2emission ETV
vector 200 RSUExampleScenario.node[40].veinsmobility posx ETV
vector 201 RSUExampleScenario.node[40].veinsmobility posy ETV
vector 202 RSUExampleScenario.node[40].veinsmobility speed ETV
vector 203 RSUExampleScenario.node[40].veinsmobility acceleration ETV
vector 204 RSUExampleScenario.node[40].veinsmobility co2emission ETV
vector 205 RSUExampleScenario.node[41].veinsmobility posx ETV
vector 206 RSUExampleScenario.node[41].veinsmobility posy ETV
vector 207 RSUExampleScenario.node[41].veinsmobility speed ETV
vector 208 RSUExampleScenario.node[41].veinsmobility acceleration ETV
vector 209 RSUExampleScenario.node[41].veinsmobility co2emission ETV
vector 210 RSUExampleScenario.node[42].veinsmobility posx ETV
vector 211 RSUExampleScenario.node[42].veinsmobility posy ETV
vector 212 RSUExampleScenario.node[42].veinsmobility speed ETV
vector 213 RSUExampleScenario.node[42].veinsmobility acceleration ETV
vector 214 RSUExampleScenario.node[42].veinsmobility co2emission ETV
vector 215 RSUExampleScenario.node[43].veinsmobility posx ETV
vector 216 RSUExampleScenario.node[43].veinsmobility posy ETV
vector 217 RSUExampleScenario.node[43].veinsmobility speed ETV
vector 218 RSUExampleScenario.node[43].veinsmobility acceleration ETV
vector 219 RSUExampleScenario.node[43].veinsmobility co2emission ETV
vector 220 RSUExampleScenario.node[44].veinsmobility posx ETV
vector 221 RSUExampleScenario.node[44].veinsmobility posy ETV
vector 222 RSUExampleScenario.node[44].veinsmobility speed ETV
vector 223 RSUExampleScenario.node[44].veinsmobility acceleration ETV
vector 224 RSUExampleScenario.node[44].veinsmobility co2emission ETV
vector 225 RSUExampleScenario.node[45].veinsmobility posx ETV
vector 226 RSUExampleScenario.node[45].veinsmobility posy ETV
vector 227 RSUExampleScenario.node[45].veinsmobility speed ETV
vector 228 RSUExampleScenario.node[45].veinsmobility acceleration ETV
vector 229 RSUExampleScenario.node[45].veinsmobility co2emission ETV
vector 230 RSUExampleScenario.node[46].veinsmobility posx ETV
vector 231 RSUExampleScenario.node[46].veinsmobility posy ETV
vector 232 RSUExampleScenario.node[46].veinsmobility speed ETV
vector 233 RSUExampleScenario.node[46].veinsmobility acceleration ETV
vector 234 RSUExampleScenario.node[46].veinsmobility co2emission ETV
vector 235 RSUExampleScenario.node[47].veinsmobility posx ETV
vector 236 RSUExampleScenario.node[47].veinsmobility posy ETV
vector 237 RSUExampleScenario.node[47].veinsmobility speed ETV
vector 238 RSUExampleScenario.node[47].veinsmobility acceleration ETV
vector 239 RSUExampleScenario.node[47].veinsmobility co2emission ETV
vector 240 RSUExampleScenario.node[48].veinsmobility posx ETV
vector 241 RSUExampleScenario.node[48].veinsmobility posy ETV
vector 242 RSUExampleScenario.node[48].veinsmobility speed ETV
vector 243 RSUExampleScenario.node[48].veinsmobility acceleration ETV
vector 244 RSUExampleScenario.node[48].veinsmobility co2emission ETV
vector 245 RSUExampleScenario.node[49].veinsmobility posx ETV
vector 246 RSUExampleScenario.node[49].veinsmobility posy ETV
vector 247 RSUExampleScenario.node[49].veinsmobility speed ETV
vector 248 RSUExampleScenario.node[49].veinsmobility acceleration ETV
vector 249 RSUExampleScenario.node[49].veinsmobility co2emission ETV
vector 250 RSUExampleScenario.node[50].veinsmobility posx ETV
vector 251 RSUExampleScenario.node[50].veinsmobility posy ETV
vector 252 RSUExampleScenario.node[50].veinsmobility speed ETV
vector 253 RSUExampleScenario.node[50].veinsmobility acceleration ETV
vector 254 RSUExampleScenario.node[50].veinsmobility co2emission ETV
vector 255 RSUExampleScenario.node[51].veinsmobility posx ETV
vector 256 RSUExampleScenario.node[51].veinsmobility posy ETV
vector 257 RSUExampleScenario.node[51].veinsmobility speed ETV
vector 258 RSUExampleScenario.node[51].veinsmobility acceleration ETV
vector 259 RSUExampleScenario.node[51].veinsmobility co2emission ETV
vector 260 RSUExampleScenario.node[52].veinsmobility posx ETV
vector 261 RSUExampleScenario.node[52].veinsmobility posy ETV
vector 262 RSUExampleScenario.node[52].veinsmobility speed ETV
vector 263 RSUExampleScenario.node[52].veinsmobility acceleration ETV
vector 264 RSUExampleScenario.node[52].veinsmobility co2emission ETV
vector 265 RSUExampleScenario.node[53].veinsmobility posx ETV
vector 266 RSUExampleScenario.node[53].veinsmobility posy ETV
vector 267 RSUExampleScenario.node[53].veinsmobility speed ETV
vector 268 RSUExampleScenario.node[53].veinsmobility acceleration ETV
vector 269 RSUExampleScenario.node[53].veinsmobility co2emission ETV
vector 270 RSUExampleScenario.node[54].veinsmobility posx ETV
vector 271 RSUExampleScenario.node[54].veinsmobility posy ETV
vector 272 RSUExampleScenario.node[54].veinsmobility speed ETV
vector 273 RSUExampleScenario.node[54].veinsmobility acceleration ETV
vector 274 RSUExampleScenario.node[54].veinsmobility co2emission ETV
vector 275 RSUExampleScenario.node[55].veinsmobility posx ETV
vector 276 RSUExampleScenario.node[55].veinsmobility posy ETV
vector 277 RSUExampleScenario.node[55].veinsmobility speed ETV
vector 278 RSUExampleScenario.node[55].veinsmobility acceleration ETV
vector 279 RSUExampleScenario.node[55].veinsmobility co2emission ETV
vector 280 RSUExampleScenario.node[56].veinsmobility posx ETV
vector 281 RSUExampleScenario.node[56].veinsmobility posy ETV
vector 282 RSUExampleScenario.node[56].veinsmobility speed ETV
vector 283 RSUExampleScenario.node[56].veinsmobility acceleration ETV
vector 284 RSUExampleScenario.node[56].veinsmobility co2emission ETV
vector 285 RSUExampleScenario.node[57].veinsmobility posx ETV
vector 286 RSUExampleScenario.node[57].veinsmobility posy ETV
vector 287 RSUExampleScenario.node[57].veinsmobility speed ETV
vector 288 RSUExampleScenario.node[57].veinsmobility acceleration ETV
vector 289 RSUExampleScenario.node[57].veinsmobility co2emission ETV
vector 290 RSUExampleScenario.node[58].veinsmobility posx ETV
vector 291 RSUExampleScenario.node[58].veinsmobility posy ETV
vector 292 RSUExampleScenario.node[58].veinsmobility speed ETV
vector 293 RSUExampleScenario.node[58].veinsmobility acceleration ETV
vector 294 RSUExampleScenario.node[58].veinsmobility co2emission ETV
vector 295 RSUExampleScenario.node[59].veinsmobility posx ETV
vector 296 RSUExampleScenario.node[59].veinsmobility posy ETV
vector 297 RSUExampleScenario.node[59].veinsmobility speed ETV
vector 298 RSUExampleScenario.node[59].veinsmobility acceleration ETV
vector 299 RSUExampleScenario.node[59].veinsmobility co2emission ETV
vector 300 RSUExampleScenario.node[60].veinsmobility posx ETV
vector 301 RSUExampleScenario.node[60].veinsmobility posy ETV
vector 302 RSUExampleScenario.node[60].veinsmobility speed ETV
vector 303 RSUExampleScenario.node[60].veinsmobility acceleration ETV
vector 304 RSUExampleScenario.node[60].veinsmobility co2emission ETV
vector 305 RSUExampleScenario.node[61].veinsmobility posx ETV
vector 306 RSUExampleScenario.node[61].veinsmobility posy ETV
vector 307 RSUExampleScenario.node[61].veinsmobility speed ETV
vector 308 RSUExampleScenario.node[61].veinsmobility acceleration ETV
vector 309 RSUExampleScenario.node[61].veinsmobility co2emission ETV
vector 310 RSUExampleScenario.node[62].veinsmobility posx ETV
vector 311 RSUExampleScenario.node[62].veinsmobility posy ETV
vector 312 RSUExampleScenario.node[62].veinsmobility speed ETV
vector 313 RSUExampleScenario.node[62].veinsmobility acceleration ETV
vector 314 RSUExampleScenario.node[62].veinsmobility co2emission ETV
vector 315 RSUExampleScenario.node[63].veinsmobility posx ETV
vector 316 RSUExampleScenario.node[63].veinsmobility posy ETV
vector 317 RSUExampleScenario.node[63].veinsmobility speed ETV
vector 318 RSUExampleScenario.node[63].veinsmobility acceleration ETV
vector 319 RSUExampleScenario.node[63].veinsmobility co2emission ETV
vector 320 RSUExampleScenario.node[64].veinsmobility posx ETV
vector 321 RSUExampleScenario.node[64].veinsmobility posy ETV
vector 322 RSUExampleScenario.node[64].veinsmobility speed ETV
vector 323 RSUExampleScenario.node[64].veinsmobility acceleration ETV
vector 324 RSUExampleScenario.node[64].veinsmobility co2emission ETV
vector 325 RSUExampleScenario.node[65].veinsmobility posx ETV
vector 326 RSUExampleScenario.node[65].veinsmobility posy ETV
vector 327 RSUExampleScenario.node[65].veinsmobility speed ETV
vector 328 RSUExampleScenario.node[65].veinsmobility acceleration ETV
vector 329 RSUExampleScenario.node[65].veinsmobility co2emission ETV
vector 330 RSUExampleScenario.node[66].veinsmobility posx ETV
vector 331 RSUExampleScenario.node[66].veinsmobility posy ETV
vector 332 RSUExampleScenario.node[66].veinsmobility speed ETV
4	4	3	3.9690439751639
4	5	4	4.8734986088453
4	6	5	6.2068327255978
4	7	6	7.2118621755177
4	8	7	8.2287933875323
4	9	8	3.0242689444712
4	10	9	2.410214010884
4	11	10	1.8042481683123
4	12	11	2.2766031729043
4	13	12	1.9910577970912
4	14	13	1.9816353748441
4	15	14	2.0006543718409
4	16	15	2.0156733927738
4	17	16	1.7275773004983
4	18	17	2.3491339177603
4	19	18	0.973
4	20	19	0.973
4	21	20	0.973
4	22	21	0.973
4	23	22	2.9202656039732
4	24	23	5.1829022112917
4	25	24	5.8409555110412
4	26	25	7.0478875101329
4	27	26	7.1923395024802
4	28	27	5.7035699225295
4	29	28	1.8542576609033
4	30	29	2.071579633465
4	31	30	2.033070591514
4	32	31	1.9708367886165
4	33	32	1.958947003716
4	34	33	2.1937519865362
4	35	34	2.0148851452489
4	36	35	1.9494556216079
4	37	36	2.1233313202265
4	38	37	2.0980065652139
4	39	38	2.0564960049267
4	40	39	1.8849385975403
4	41	40	2.0135217775437
4	42	41	2.1970455854856
4	43	42	2.0114927076469
4	44	43	1.8022364453996
4	45	44	2.4028055099799
4	46	45	1.7398103572212
4	47	46	2.0704874226364
4	48	47	1.9551479348163
4	49	48	2.0622988460067
4	50	49	2.1436920788903
4	51	50	1.9709420801269
4	52	51	2.2404713242546
4	53	52	1.6811177558643
4	54	53	2.1687186093148
4	55	54	2.068228125812
4	56	55	2.1189750795911
4	57	56	1.9158044765909
4	58	57	2.0646522515523
4	59	58	1.8795950099662
4	60	59	2.40991582857
4	61	60	2.060217812421
4	62	61	1.6101508281289
4	63	62	2.0174438220444
4	64	63	2.2227433300183
4	65	64	2.1956409213675
4	66	65	1.7698327313004
4	67	66	1.9334542286895
4	68	67	2.2331933794582
4	69	68	1.8269584545957
4	70	69	2.4094828911751
4	71	70	1.8423934072781
4	72	71	2.1030929112895
4	73	72	1.9463691603324
4	74	73	0.973
4	75	74	0.973
4	76	75	0.973
4	78	76	0.973
4	79	77	0.973
4	80	78	0.973
4	81	79	0.973
4	82	80	0.973
4	83	81	0.973
4	84	82	0.973
4	85	83	0.973
4	86	84	0.973
4	87	85	0.973
4	88	86	0.973
4	207	87	0.973
4	208	88	0.973
4	1961	89	0.973
4	1962	90	0.973
4	4268	91	0.973
4	4269	92	0.973
4	5258	93	0.973
4	5259	94	0.973
4	5385	95	0.973
4	5386	96	0.973
4	5508	97	0.973
4	5509	98	0.973
4	5510	99	0.973
4	5511	100	0.973
4	5512	101	0.973
4	5513	102	0.973
4	5514	103	0.973
4	5515	104	0.973
4	5516	105	0.973
4	5518	106	0.973
4	5519	107	0.973
4	5520	108	0.973
4	5521	109	0.973
4	5522	110	0.973
4	5523	111	0.973
4	5524	112	0.973
4	5525	113	0.973
4	5526	114	0.973
4	5527	115	0.973
4	5528	116	0.973
4	5529	117	0.973
4	5530	118	0.973
4	5531	119	0.973
4	5532	120	0.973
4	5533	121	0.973
4	5534	122	0.973
4	5535	123	0.973
4	5536	124	0.973
4	5537	125	0.973
4	5539	126	2.4110148964199
4	5540	127	4.3762142904929
4	5541	128	4.4482215371747
4	5542	129	5.4883776616249
4	5729	130	6.8338996134997
4	5730	131	7.487508317715
4	7557	132	7.2463886679137
4	7558	133	1.8736469224468
4	7746	134	2.0890641969687
4	7747	135	1.7847118530456
4	7936	136	2.424471041835
4	7937	137	1.6026273215021
4	7938	138	2.1844508262857
4	7939	139	2.1329165940934
4	7940	140	1.9202811456913
4	7941	141	2.2570252135652
4	7942	142	1.7092124494953
4	7943	143	2.2001887307963
4	7944	144	2.066390382259
4	7945	145	2.2144000026955
4	7946	146	2.0238570991803
4	7947	147	1.6169631889517
4	7948	148	2.3109593499213
4	7949	149	1.7893718415076
4	7950	150	2.2787983736996
4	7951	151	1.8406567093162
4	7952	152	2.2344425784029
4	7953	153	1.9315664771292
4	7954	154	2.0584510291845
4	7955	155	2.0003032874626
4	7957	156	2.2468034744443
4	7958	157	2.0028558603956
4	7959	158	1.7209579306654
4	7960	159	2.0580497434693
4	7961	160	2.0638924916582
4	7962	161	2.2562171353258
4	7963	162	1.848425684793
4	7964	163	1.9519878268263
4	7965	164	2.3014095817943
4	7966	165	1.7153104220625
4	7968	166	2.2847783600702
4	7969	167	1.7852646870096
4	7970	168	2.2743994637888
4	7971	169	1.8614928595242
4	7972	170	2.3038818863713
4	7973	171	1.7490787370998
4	7974	172	2.3098193087229
4	7975	173	1.8301868428965
4	7976	174	1.9392561410404
4	7977	175	2.3484511842005
4	7978	176	1.6735950913231
4	7979	177	2.2194127477174
4	7980	178	1.968353660952
4	7981	179	1.8894376534924
4	7982	180	2.0591648043872
4	7983	181	2.4083231291615
4	7984	182	1.8846644456448
4	7985	183	2.0645024571429
4	7986	184	1.9406264206591
4	7987	185	2.1644917614211
4	7989	186	1.9577084879739
4	7990	187	1.9563376376084
4	7991	188	1.8677559749289
4	7992	189	2.3407721771015
4	7993	190	2.0315389265986
4	7994	191	1.76795872301
4	7995	192	2.3536050547065
4	7996	193	1.9094116528536
4	7997	194	1.9142292227408
4	7998	195	2.0268475274462
4	8000	196	2.1464619254623
4	8001	197	1.869129501393
4	8002	198	2.2179198215622
4	8003	199	2.1069552891904
4	8004	200	2.0393339996775
3	4	3	1.8350836683181
3	5	4	1.8271086537745
3	6	5	1.9700068054721
3	7	6	1.9440954117314
3	8	7	1.9251633647294
3	9	8	0.3043542271355
3	10	9	0.11476667602547
3	11	10	-0.064753184660804
3	12	11	0.074470334358047
3	13	12	-0.010534379172604
3	14	13	-0.012970053050667
3	15	14	-0.0070667944545857
3	16	15	-0.0024941215664143
3	17	16	-0.086695689375047
3	18	17	0.096991665165405
3	19	18	-1.1627897896615
3	20	19	-3.2370594858455
3	21	20	-2.9603488400973
3	22	21	-2.5337033977468
3	23	22	1.2329252061435
3	24	23	2.094907346114
3	25	24	1.9011793446587
3	26	25	1.9599004447064
3	27	26	1.6991365455417
3	28	27	1.0915354850417
3	29	28	-0.052010718395469
3	30	29	0.01248028835049
3	31	30	0.00096433614380587
3	32	31	-0.017099415783305
3	33	32	-0.020069704249035
3	34	33	0.048505362290889
3	35	34	-0.0046603607200097
3	36	35	-0.023492567082867
3	37	36	0.027538535709027
3	38	37	0.01937479801709
3	39	38	0.0068101624515826
3	40	39	-0.043050197220873
3	41	40	-0.0045451738196416
3	42	41	0.048586284592748
3	43	42	-0.0064147925446747
3	44	43	-0.06697850137949
3	45	44	0.10845056370599
3	46	45	-0.086184235455002
3	47	46	0.012157847334166
3	48	47	-0.02162330031395
3	49	48	0.01007445028983
3	50	49	0.033280818574131
3	51	50	-0.017653799874243
3	52	51	0.060609251707794
3	53	52	-0.10310439425055
3	54	53	0.04136053440161
3	55	54	0.011047466655729
3	56	55	0.025352031746879
3	57	56	-0.034127474795095
3	58	57	0.0099455157318147
3	59	58	-0.043998417782131
3	60	59	0.11027641468448
3	61	60	0.0063770599314008
3	62	61	-0.12437126584118
3	63	62	-0.002486674915998
3	64	63	0.056955466950312
3	65	64	0.047281749872491
3	66	65	-0.077224377754611
3	67	66	-0.027593536539934
3	68	67	0.059983630857896
3	69	68	-0.05946393133374
3	70	69	0.11053127134917
3	71	70	-0.056278499371837
3	72	71	0.020738100388552
3	73	72	-0.02517115517985
3	74	73	-1.6366440532162
3	75	74	-3.2727100428296
3	76	75	-2.8991261011466
3	78	76	-4.5
3	79	77	-1.6130176202615
3	80	78	0
3	81	79	0
3	82	80	0
3	83	81	0
3	84	82	0
3	85	83	0
3	86	84	0
3	87	85	0
3	88	86	0
3	207	87	0
3	208	88	0
3	1961	89	0
3	1962	90	0
3	4268	91	0
3	4269	92	0
3	5258	93	0
3	5259	94	0
3	5385	95	0
3	5386	96	0
3	5508	97	0
3	5509	98	0
3	5510	99	0
3	5511	100	0
3	5512	101	0
3	5513	102	0
3	5514	103	0
3	5515	104	0
3	5516	105	0
3	5518	106	0
3	5519	107	0
3	5520	108	0
3	5521	109	0
3	5522	110	0
3	5523	111	0
3	5524	112	0
3	5525	113	0
3	5526	114	0
3	5527	115	0
3	5528	116	0
3	5529	117	0
3	5530	118	0
3	5531	119	0
3	5532	120	0
3	5533	121	0
3	5534	122	0
3	5535	123	0
3	5536	124	0
3	5537	125	0
3	5539	126	2.2246102428935
3	5540	127	2.6
3	5541	128	1.8560920864087
3	5542	129	1.891119004183
3	5729	130	2.0029415552062
3	5730	131	1.8673577700625
3	7557	132	1.5452149971006
3	7558	133	-0.047345833701547
3	7746	134	0.016261815349571
3	7747	135	-0.072407276278827
3	7936	136	0.1143618238857
3	7937	137	-0.12656636003871
3	7938	138	0.045922909667716
3	7939	139	0.029595267204567
3	7940	140	-0.032748176157474
3	7941	141	0.065372841688804
3	7942	142	-0.09499355140375
3	7943	143	0.050028323524167
3	7944	144	0.0098797714314429
3	7945	145	0.05213887388585
3	7946	146	-0.0042207782180039
3	7947	147	-0.12225061865523
3	7948	148	0.08236208234448
3	7949	149	-0.070962024249601
3	7950	150	0.072734668047632
3	7951	151	-0.056071815898177
3	7952	152	0.059429106807803
3	7953	153	-0.029769370523281
3	7954	154	0.0077902077697214
3	7955	155	-0.0092483466956761
3	7957	156	0.062029640041292
3	7958	157	-0.010033515868709
3	7959	158	-0.091538168769329
3	7960	159	0.0089064160035921
3	7961	160	0.010329422608484
3	7962	161	0.065415071730968
3	7963	162	-0.054257343441714
3	7964	163	-0.022728252974339
3	7965	164	0.078772114845924
3	7966	165	-0.093068624779116
3	7968	166	0.074496628276538
3	7969	167	-0.072214205316268
3	7970	168	0.07143811681075
3	7971	169	-0.05000507550314
3	7972	170	0.079152790252119
3	7973	171	-0.083447758869733
3	7974	172	0.081003105540294
3	7975	173	-0.059789288458415
3	7976	174	-0.026524975288194
3	7977	175	0.092249054922723
3	7978	176	-0.10555711968802
3	7979	177	0.055679783248342
3	7980	178	-0.018528794979211
3	7981	179	-0.040933821906801
3	7982	180	0.0095189137756826
3	7983	181	0.109635523092
3	7984	182	-0.044399497108534
3	7985	183	0.0088107110303834
3	7986	184	-0.027232948692982
3	7987	185	0.038166339707095
3	7989	186	-0.022594285153318
3	7990	187	-0.022358971254434
3	7991	188	-0.047472565355712
3	7992	189	0.090585710084998
3	7993	190	-0.001224934463389
3	7994	191	-0.077599320798182
3	7995	192	0.093839812988881
3	7996	193	-0.036928499036001
3	7997	194	-0.034532751443331
3	7998	195	-0.00091953622875707
3	8000	196	0.033649388996418
3	8001	197	-0.047582250081467
3	8002	198	0.054666622818912
3	8003	199	0.020998626307119
3	8004	200	0.00089298073435273
2	3	2	3.9572089270348
2	4	3	5.7922925953529
2	5	4	7.6194012491274
2	6	5	9.5894080545995
2	7	6	11.533503466331
2	8	7	13.45866683106
2	9	8	13.763021058196
2	10	9	13.877787734221
2	11	10	13.81303454956
2	12	11	13.887504883918
2	13	12	13.876970504746
2	14	13	13.864000451695
2	15	14	13.856933657241
2	16	15	13.854439535674
2	17	16	13.767743846299
2	18	17	13.864735511465
2	19	18	12.701945721803
2	20	19	9.4648862359575
2	21	20	6.5045373958602
2	22	21	3.9708339981135
2	23	22	5.203759204257
2	24	23	7.298666550371
2	25	24	9.1998458950297
2	26	25	11.159746339736
2	27	26	12.858882885278
2	28	27	13.95041837032
2	29	28	13.898407651924
2	30	29	13.910887940275
2	31	30	13.911852276418
2	32	31	13.894752860635
2	33	32	13.874683156386
2	34	33	13.923188518677
2	35	34	13.918528157957
2	36	35	13.895035590874
2	37	36	13.922574126583
2	38	37	13.9419489246
2	39	38	13.948759087052
2	40	39	13.905708889831
2	41	40	13.901163716011
2	42	41	13.949750000604
2	43	42	13.943335208059
2	44	43	13.87635670668
2	45	44	13.984807270386
2	46	45	13.898623034931
2	47	46	13.910780882265
2	48	47	13.889157581951
2	49	48	13.899232032241
2	50	49	13.932512850815
2	51	50	13.914859050941
2	52	51	13.975468302649
2	53	52	13.872363908398
2	54	53	13.9137244428
2	55	54	13.924771909455
2	56	55	13.950123941202
2	57	56	13.915996466407
2	58	57	13.925941982139
2	59	58	13.881943564357
2	60	59	13.992219979041
2	61	60	13.998597038973
2	62	61	13.874225773131
2	63	62	13.871739098215
2	64	63	13.928694565166
2	65	64	13.975976315038
2	66	65	13.898751937284
2	67	66	13.871158400744
2	68	67	13.931142031602
2	69	68	13.871678100268
2	70	69	13.982209371617
2	71	70	13.925930872245
2	72	71	13.946668972634
2	73	72	13.921497817454
2	74	73	12.284853764238
2	75	74	9.0121437214081
2	76	75	6.1130176202615
2	78	76	1.6130176202615
2	79	77	0
2	80	78	0
2	81	79	0
2	82	80	0
2	83	81	0
2	84	82	0
2	85	83	0
2	86	84	0
2	87	85	0
2	88	86	0
2	207	87	0
2	208	88	0
2	1961	89	0
2	1962	90	0
2	4268	91	0
2	4269	92	0
2	5258	93	0
2	5259	94	0
2	5385	95	0
2	5386	96	0
2	5508	97	0
2	5509	98	0
2	5510	99	0
2	5511	100	0
2	5512	101	0
2	5513	102	0
2	5514	103	0
2	5515	104	0
2	5516	105	0
2	5518	106	0
2	5519	107	0
2	5520	108	0
2	5521	109	0
2	5522	110	0
2	5523	111	0
2	5524	112	0
2	5525	113	0
2	5526	114	0
2	5527	115	0
2	5528	116	0
2	5529	117	0
2	5530	118	0
2	5531	119	0
2	5532	120	0
2	5533	121	0
2	5534	122	0
2	5535	123	0
2	5536	124	0
2	5537	125	0
2	5539	126	2.2246102428935
2	5540	127	4.8246102428935
2	5541	128	6.6807023293023
2	5542	129	8.5718213334852
2	5729	130	10.574762888691
2	5730	131	12.442120658754
2	7557	132	13.987335655855
2	7558	133	13.939989822153
2	7746	134	13.956251637503
2	7747	135	13.883844361224
2	7936	136	13.998206185109
2	7937	137	13.871639825071
2	7938	138	13.917562734738
2	7939	139	13.947158001943
2	7940	140	13.914409825786
2	7941	141	13.979782667474
2	7942	142	13.884789116071
2	7943	143	13.934817439595
2	7944	144	13.944697211026
2	7945	145	13.996836084912
2	7946	146	13.992615306694
2	7947	147	13.870364688039
2	7948	148	13.952726770383
2	7949	149	13.881764746134
2	7950	150	13.954499414181
2	7951	151	13.898427598283
2	7952	152	13.957856705091
2	7953	153	13.928087334568
2	7954	154	13.935877542337
2	7955	155	13.926629195642
2	7957	156	13.988658835683
2	7958	157	13.978625319814
2	7959	158	13.887087151045
2	7960	159	13.895993567049
2	7961	160	13.906322989657
2	7962	161	13.971738061388
2	7963	162	13.917480717946
2	7964	163	13.894752464972
2	7965	164	13.973524579818
2	7966	165	13.880455955039
2	7968	166	13.954952583315
2	7969	167	13.882738377999
2	7970	168	13.95417649481
2	7971	169	13.904171419307
2	7972	170	13.983324209559
2	7973	171	13.899876450689
2	7974	172	13.980879556229
2	7975	173	13.921090267771
2	7976	174	13.894565292483
2	7977	175	13.986814347405
2	7978	176	13.881257227717
2	7979	177	13.936937010966
2	7980	178	13.918408215987
2	7981	179	13.87747439408
2	7982	180	13.886993307855
2	7983	181	13.996628830947
2	7984	182	13.952229333839
2	7985	183	13.961040044869
2	7986	184	13.933807096176
2	7987	185	13.971973435883
2	7989	186	13.94937915073
2	7990	187	13.927020179476
2	7991	188	13.87954761412
2	7992	189	13.970133324205
2	7993	190	13.968908389742
2	7994	191	13.891309068943
2	7995	192	13.985148881932
2	7996	193	13.948220382896
2	7997	194	13.913687631453
2	7998	195	13.912768095224
2	8000	196	13.946417484221
2	8001	197	13.898835234139
2	8002	198	13.953501856958
2	8003	199	13.974500483265
2	8004	200	13.975393463999
1	2	1	1578.4416120471
1	3	2	1578.4416120471
1	4	3	1579.4966245294
1	5	4	1581.2776015159
1	6	5	1586.1653365986
1	7	6	1592.3755327258
1	8	7	1599.9554281235
1	9	8	1608.9150987137
1	10	9	1618.7330828821
1	11	10	1628.5774648814
1	12	11	1638.4196562562
1	13	12	1648.4360301802
1	14	13	1660.0725704357
1	15	14	1672.8800310632
1	16	15	1681.6922949329
1	17	16	1690.9525972893
1	18	17	1695.3639500989
1	19	18	1697.2011958091
1	20	19	1698.541036698
1	21	20	1699.5699112993
1	22	21	1700.3040461661
1	23	22	1700.7837737445
1	24	23	1701.0583376894
1	25	24	1703.8447521525
1	26	25	1712.0460333815
1	27	26	1722.1372181661
1	28	27	1734.0981961433
1	29	28	1747.6328665474
1	30	29	1761.4906543829
1	31	30	1775.4009959176
1	32	31	1789.2945122393
1	33	32	1803.1846920336
1	34	33	1817.0826861728
1	35	34	1830.9873044016
1	36	35	1844.8958232021
1	37	36	1858.787373418
1	38	37	1872.6706152447
1	39	38	1886.5527931787
1	40	39	1900.4314930569
1	41	40	1914.3205429167
1	42	41	1928.2196500115
1	43	42	1942.0989239831
1	44	43	1955.9945893753
1	45	44	1969.8811024986
1	46	45	1983.7780732056
1	47	46	1997.6460498739
1	48	47	2011.5499500362
1	49	48	2025.4136744449
1	50	49	2039.3004943542
1	51	50	2053.1822455181
1	52	51	2067.0851366306
1	53	52	2080.9781504953
1	54	53	2094.8620636659
1	55	54	2107.5958017986
1	56	55	2116.50443774
1	57	56	2120.966550488
1	58	57	2120.4964137897
1	59	58	2120.0263004107
1	60	59	2119.5562957739
1	61	60	2119.0856129043
1	62	61	2118.6154833902
1	63	62	2118.1451617796
1	64	63	2117.6747573502
1	65	64	2117.2052744217
1	66	65	2116.7349278545
1	67	66	2116.2643479006
1	68	67	2115.7947104117
1	69	68	2114.7714226404
1	70	69	2112.8172696698
1	71	70	2110.6040639561
1	72	71	2106.1301952414
1	73	72	2101.6563989418
1	74	73	2096.5653671324
1	75	74	2089.751967214
1	76	75	2084.4639622094
1	78	76	2080.7223480865
1	79	77	2078.8767545735
1	80	78	2078.7682388239
1	81	79	2078.7682388239
1	82	80	2078.7682388239
1	83	81	2078.7682388239
1	84	82	2078.7682388239
1	85	83	2078.7682388239
1	86	84	2078.7682388239
1	87	85	2078.7682388239
1	88	86	2078.7682388239
1	207	87	2078.7682388239
1	208	88	2078.7682388239
1	1961	89	2078.7682388239
1	1962	90	2078.7682388239
1	4268	91	2078.7682388239
1	4269	92	2078.7682388239
1	5258	93	2078.7682388239
1	5259	94	2078.7682388239
1	5385	95	2078.7682388239
1	5386	96	2078.7682388239
1	5508	97	2078.7682388239
1	5509	98	2078.7682388239
1	5510	99	2078.7682388239
1	5511	100	2078.7682388239
1	5512	101	2078.7682388239
1	5513	102	2078.7682388239
1	5514	103	2078.7682388239
1	5515	104	2078.7682388239
1	5516	105	2078.7682388239
1	5518	106	2078.7682388239
1	5519	107	2078.7682388239
1	5520	108	2078.7682388239
1	5521	109	2078.7682388239
1	5522	110	2078.7682388239
1	5523	111	2078.7682388239
1	5524	112	2078.7682388239
1	5525	113	2078.7682388239
1	5526	114	2078.7682388239
1	5527	115	2078.7682388239
1	5528	116	2078.7682388239
1	5529	117	2078.7682388239
1	5530	118	2078.7682388239
1	5531	119	2078.7682388239
1	5532	120	2078.7682388239
1	5533	121	2078.7682388239
1	5534	122	2078.7682388239
1	5535	123	2078.7682388239
1	5536	124	2078.7682388239
1	5537	125	2078.7682388239
1	5539	126	2078.7682388239
1	5540	127	2078.1200756226
1	5541	128	2076.266064547
1	5542	129	2072.524147396
1	5729	130	2066.9082729267
1	5730	131	2059.8694373518
1	7557	132	2051.3993829275
1	7558	133	2041.6015283167
1	7746	134	2031.4327510977
1	7747	135	2021.2562221447
1	7936	136	2011.091735648
1	7937	137	2000.9184145117
1	7938	138	1990.7380668353
1	7939	139	1980.5728782639
1	7940	140	1970.7540723672
1	7941	141	1961.0436769444
1	7942	142	1951.3182659429
1	7943	143	1941.5988711622
1	7944	144	1931.8843234414
1	7945	145	1922.1739454586
1	7946	146	1912.4550083335
1	7947	147	1902.7359445356
1	7948	148	1893.0334462393
1	7949	149	1883.3114148481
1	7950	150	1873.6109278435
1	7951	151	1863.6885760361
1	7952	152	1853.7136600092
1	7953	153	1843.7459109053
1	7954	154	1833.7757189637
1	7955	155	1823.7988947695
1	7957	156	1813.8195271324
1	7958	157	1803.8542115903
1	7959	158	1793.8740316294
1	7960	159	1783.9132603649
1	7961	160	1773.9392837919
1	7962	161	1764.10464371
1	7963	162	1754.5026758835
1	7964	163	1744.9111640882
1	7965	164	1735.2142778011
1	7966	165	1725.4535561502
1	7968	166	1715.7033108054
1	7969	167	1705.9411151195
1	7970	168	1696.1950240843
1	7971	169	1686.4443039186
1	7972	170	1676.6916164979
1	7973	171	1666.9293998135
1	7974	172	1657.1827235129
1	7975	173	1647.4362509307
1	7976	174	1637.6676470283
1	7977	175	1627.912595463
1	7978	176	1618.1507462636
1	7979	177	1608.4062000373
1	7980	178	1598.6479374506
1	7981	179	1588.8883381812
1	7982	180	1579.1462210333
1	7983	181	1569.3960218802
1	7984	182	1559.6384944571
1	7985	183	1549.9153201748
1	7986	184	1540.000423748
1	7987	185	1530.0992069338
1	7989	186	1520.1976672588
1	7990	187	1510.2828829326
1	7991	188	1500.3775456846
1	7992	189	1490.8953137714
1	7993	190	1481.760228972
1	7994	191	1472.6310520954
1	7995	192	1463.5070431512
1	7996	193	1454.3674433995
1	7997	194	1445.516599264
1	7998	195	1437.4769164557
1	8000	196	1429.4406612348
1	8001	197	1421.3967398806
1	8002	198	1413.3508736966
1	8003	199	1406.0441085706
1	8004	200	1400.0888727028
0	2	1	2414.9014220152
0	3	2	2414.9014220152
0	4	3	2412.0282535021
0	5	4	2407.434272861
0	6	5	2402.6086066293
0	7	6	2396.4772731521
0	8	7	2388.9936340754
0	9	8	2380.1477414317
0	10	9	2370.4544348472
0	11	10	2360.735065655
0	12	11	2351.0178592684
0	13	12	2341.5298487653
0	14	13	2334.7235384902
0	15	14	2336.8243788907
0	16	15	2347.473535693
0	17	16	2357.7419379568
0	18	17	2370.3022435491
0	19	18	2383.9995112187
0	20	19	2397.5196581341
0	21	20	2408.4006939746
0	22	21	2416.1646603449
0	23	22	2421.2380997778
0	24	23	2425.4024470274
0	25	24	2430.5642199855
0	26	25	2431.857510546
0	27	26	2433.3910067528
0	28	27	2435.2086441015
0	29	28	2437.2654259532
0	30	29	2438.6622200004
0	31	30	2439.5314866065
0	32	31	2440.5417792661
0	33	32	2441.5518293041
0	34	33	2442.5624475764
0	35	34	2443.5735475319
0	36	35	2444.5849311245
0	37	36	2445.5950808151
0	38	37	2446.6046263459
0	39	38	2447.6140945138
0	40	39	2448.6233097685
0	41	40	2449.6332776411
0	42	41	2450.6439768443
0	43	42	2449.5656488632
0	44	43	2448.4523300367
0	45	44	2447.3397444888
0	46	45	2446.2263210806
0	47	46	2445.1152206709
0	48	47	2444.0012420758
0	49	48	2442.8904823567
0	50	49	2441.777872229
0	51	50	2440.6656682086
0	52	51	2439.6989606298
0	53	52	2438.7586376385
0	54	53	2437.8656483651
0	55	54	2432.7589399592
0	56	55	2422.3179143567
0	57	56	2409.1878704632
0	58	57	2395.2685581594
0	59	58	2381.3499362882
0	60	59	2367.4345339072
0	61	60	2353.4990511541
0	62	61	2339.5799515581
0	63	62	2325.6551645531
0	64	63	2311.7279255744
0	65	64	2297.8279693802
0	66	65	2283.9024435012
0	67	66	2269.9700077686
0	68	67	2256.0654755381
0	69	68	2242.2022168655
0	70	69	2228.4219174191
0	71	70	2214.6856643925
0	72	71	2201.4943822231
0	73	72	2188.3033135722
0	74	73	2175.3852950842
0	75	74	2163.8113479719
0	76	75	2154.8285947237
0	78	76	2148.4727012644
0	79	77	2145.3375848804
0	80	78	2145.153248784
0	81	79	2145.153248784
0	82	80	2145.153248784
0	83	81	2145.153248784
0	84	82	2145.153248784
0	85	83	2145.153248784
0	86	84	2145.153248784
0	87	85	2145.153248784
0	88	86	2145.153248784
0	207	87	2145.153248784
0	208	88	2145.153248784
0	1961	89	2145.153248784
0	1962	90	2145.153248784
0	4268	91	2145.153248784
0	4269	92	2145.153248784
0	5258	93	2145.153248784
0	5259	94	2145.153248784
0	5385	95	2145.153248784
0	5386	96	2145.153248784
0	5508	97	2145.153248784
0	5509	98	2145.153248784
0	5510	99	2145.153248784
0	5511	100	2145.153248784
0	5512	101	2145.153248784
0	5513	102	2145.153248784
0	5514	103	2145.153248784
0	5515	104	2145.153248784
0	5516	105	2145.153248784
0	5518	106	2145.153248784
0	5519	107	2145.153248784
0	5520	108	2145.153248784
0	5521	109	2145.153248784
0	5522	110	2145.153248784
0	5523	111	2145.153248784
0	5524	112	2145.153248784
0	5525	113	2145.153248784
0	5526	114	2145.153248784
0	5527	115	2145.153248784
0	5528	116	2145.153248784
0	5529	117	2145.153248784
0	5530	118	2145.153248784
0	5531	119	2145.153248784
0	5532	120	2145.153248784
0	5533	121	2145.153248784
0	5534	122	2145.153248784
0	5535	123	2145.153248784
0	5536	124	2145.153248784
0	5537	125	2145.153248784
0	5539	126	2145.153248784
0	5540	127	2144.0522116066
0	5541	128	2140.9027962806
0	5542	129	2136.4203968695
0	5729	130	2131.1596300402
0	5730	131	2124.565879965
0	7557	132	2116.6314110588
0	7558	133	2107.4531025311
0	7746	134	2097.9273258814
0	7747	135	2088.3942876623
0	7936	136	2078.8725304208
0	7937	137	2069.3424971786
0	7938	138	2059.8058817044
0	7939	139	2050.2834667827
0	7940	140	2040.4000731398
0	7941	141	2030.4109709992
0	7942	142	2020.4064223041
0	7943	143	2010.4080625069
0	7944	144	2000.4146888892
0	7945	145	1990.4256046889
0	7946	146	1980.4277156831
0	7947	147	1970.4296963677
0	7948	148	1960.4487180164
0	7949	149	1950.4476459328
0	7950	150	1940.4687366004
0	7951	151	1930.6426809123
0	7952	152	1920.9085885452
0	7953	153	1911.1814900718
0	7954	154	1901.4520077374
0	7955	155	1891.7160532729
0	7957	156	1881.9776167717
0	7958	157	1872.2528931065
0	7959	158	1862.5136638925
0	7960	159	1852.7933747931
0	7961	160	1843.0601992001
0	7962	161	1833.2129185686
0	7963	162	1823.1028711564
0	7964	163	1813.003833046
0	7965	164	1802.9907706064
0	7966	165	1793.030977844
0	7968	166	1783.0818750543
0	7969	167	1773.1205781947
0	7970	168	1763.1757144413
0	7971	169	1753.2261271459
0	7972	170	1743.2745324739
0	7973	171	1733.3132141868
0	7974	172	1723.3677532324
0	7975	173	1713.4225001502
0	7976	174	1703.454664378
0	7977	175	1693.5006573432
0	7978	176	1683.5397140367
0	7979	177	1673.5964265992
0	7980	178	1663.6391430544
0	7981	179	1653.6804955652
0	7982	180	1643.7396867473
0	7983	181	1633.7906310915
0	7984	182	1623.8340977043
0	7985	183	1614.0088915782
0	7986	184	1604.1868505806
0	7987	185	1594.3783610832
0	7989	186	1584.5695517481
0	7990	187	1574.7476218013
0	7991	188	1564.9350504592
0	7992	189	1554.7236352778
0	7993	190	1544.1629092642
0	7994	191	1533.6090131778
0	7995	192	1523.0610915428
0	7996	193	1512.4951459644
0	7997	194	1501.7178411853
0	7998	195	1490.3095189948
0	8000	196	1478.9060605544
0	8001	197	1467.4917238593
0	8002	198	1456.074627449
0	8003	199	1444.2623097691
0	8004	200	1431.6308251878
9	7	6	4.2301091069722
9	8	7	5.4083752898229
9	9	8	6.4569285084612
9	10	9	6.9981297601067
9	11	10	8.3312879690391
9	12	11	2.4141445356829
9	13	12	2.1874061765078
9	14	13	1.8382242624125
9	15	14	2.0343893016141
9	16	15	1.9593955015171
9	17	16	2.2876002045415
9	18	17	1.6630794257514
9	19	18	2.3307419132725
9	20	19	2.0570318190542
9	21	20	0.973
9	22	21	0.973
9	23	22	0.973
9	24	23	0.973
9	25	24	0.973
9	26	25	0.973
9	27	26	5.0298054635758
9	28	27	5.3387626171002
9	29	28	6.0992411196982
9	30	29	7.6689071873388
9	31	30	7.6953946644296
9	32	31	2.2138015462716
9	33	32	1.8297571526508
9	34	33	1.9617299658648
9	35	34	2.2952115578408
9	36	35	2.0616520584725
9	37	36	1.754348913972
9	38	37	2.0877151155648
9	39	38	1.9439382944776
9	40	39	2.2854708098026
9	41	40	1.8636906702153
9	42	41	2.3542075109855
9	43	42	2.0212017762597
9	44	43	1.9852732682006
9	45	44	2.0501312890771
9	46	45	1.7295064557081
9	47	46	2.1721049310558
9	48	47	2.0260253266059
9	49	48	2.1004165056056
9	50	49	2.1222972100305
9	51	50	1.7195426961875
9	52	51	2.1943406010272
9	53	52	2.2204838817958
9	54	53	1.7147641271474
9	55	54	2.1203351901188
9	56	55	2.19090230073
9	57	56	2.0926411604769
9	58	57	1.8907404194004
9	59	58	1.897294422508
9	60	59	2.1444220061647
9	61	60	2.2027721979195
9	62	61	2.0010986474578
9	63	62	1.9645049360925
9	64	63	2.186888723854
9	65	64	1.9083002968928
9	66	65	2.1406602496428
9	67	66	1.799153459795
9	68	67	2.2212608375083
9	69	68	1.9495279777307
9	70	69	1.8852368861481
9	71	70	1.9890193069286
9	72	71	1.987796202425
9	73	72	2.1930331348408
9	74	73	2.2051001228538
9	75	74	1.9661718581163
9	76	75	1.9298795222038
9	78	76	0.973
9	79	77	0.973
9	80	78	0.973
9	81	79	0.973
9	82	80	0.973
9	83	81	0.973
9	84	82	0.973
9	85	83	0.973
9	86	84	0.973
9	87	85	0.973
9	88	86	0.973
9	207	87	0.973
9	208	88	0.973
9	1961	89	0.973
9	1962	90	0.973
9	4268	91	0.973
9	4269	92	0.973
9	5258	93	0.973
9	5259	94	0.973
9	5385	95	0.973
9	5386	96	0.973
9	5508	97	0.973
9	5509	98	0.973
9	5510	99	0.973
9	5511	100	0.973
9	5512	101	0.973
9	5513	102	0.973
9	5514	103	0.973
9	5515	104	0.973
9	5516	105	0.973
9	5518	106	0.973
9	5519	107	0.973
9	5520	108	0.973
9	5521	109	0.973
9	5522	110	0.973
9	5523	111	0.973
9	5524	112	0.973
9	5525	113	0.973
9	5526	114	0.973
9	5527	115	0.973
9	5528	116	0.973
9	5529	117	0.973
9	5530	118	0.973
9	5531	119	0.973
9	5532	120	0.973
9	5533	121	0.973
9	5534	122	0.973
9	5535	123	0.973
9	5536	124	0.973
9	5537	125	0.973
9	5539	126	1.3631976180827
9	5540	127	2.6860366465989
9	5541	128	1.6817952736254
9	5542	129	5.0268986901217
9	5729	130	5.4368389814085
9	5730	131	6.7210484905568
9	7557	132	7.694642606367
9	7558	133	8.1705973425478
9	7746	134	2.3346173145876
9	7747	135	1.6993496526726
9	7936	136	2.0208465247618
9	7937	137	2.3748548109116
9	7938	138	1.6497843170806
9	7939	139	2.3793424968489
9	7940	140	1.9216199881329
9	7941	141	2.1975633147567
9	7942	142	1.9540544842636
9	7943	143	1.7136191384954
9	7944	144	2.4610255319078
9	7945	145	1.8083089345069
9	7946	146	2.153655299416
9	7947	147	2.082736503218
9	7948	148	1.6779174465943
9	7949	149	2.3357229587957
9	7950	150	2.0390627368016
9	7951	151	1.7085150458506
9	7952	152	2.2817910303295
9	7953	153	2.2131798131429
9	7954	154	1.7028818123344
9	7955	155	2.2277740074734
9	7957	156	1.8033553176747
9	7958	157	2.1389979132213
9	7959	158	2.2210617300063
9	7960	159	1.8245441998536
9	7961	160	2.013151286789
9	7962	161	2.3296096352085
9	7963	162	1.6618643600514
9	7964	163	2.1619013108312
9	7965	164	1.9449602130795
9	7966	165	1.9490582846931
9	7968	166	2.3932886565501
9	7969	167	1.8857045184369
9	7970	168	2.1696741393275
9	7971	169	2.018013845
9	7972	170	1.8381171012985
9	7973	171	2.0299637940969
9	7974	172	2.2891918591283
9	7975	173	1.9318970989814
9	7976	174	1.7954313125162
9	7977	175	2.3281517700624
9	7978	176	1.679115581854
9	7979	177	2.4166532776896
9	7980	178	1.8173208541888
9	7981	179	2.0348909772901
9	7982	180	2.0580566080594
9	7983	181	1.9773992825341
9	7984	182	2.0586194280271
9	7985	183	2.0891470190924
9	7986	184	1.9816210504835
9	7987	185	2.1908256330978
9	7989	186	1.8420819003082
9	7990	187	2.0085786700786
9	7991	188	2.0064858104365
9	7992	189	1.9561424835442
9	7993	190	2.0100053489025
9	7994	191	2.3086832512815
9	7995	192	1.7383196097801
9	7996	193	2.1527532510822
9	7997	194	2.0916121140371
9	7998	195	1.837401515216
9	8000	196	2.2840532334992
9	8001	197	2.0036091639584
9	8002	198	2.2127653892913
9	8003	199	1.962528885755
9	8004	200	1.7477931859519
8	7	6	1.9474421001598
8	8	7	2.0059184591635
8	9	8	1.9846240851143
8	10	9	1.8173657322512
8	11	10	1.9131545290095
8	12	11	0.11784023580519
8	13	12	0.048173203465995
8	14	13	-0.054790777366142
8	15	14	0.0039751141518352
8	16	15	-0.018007996121888
8	17	16	0.077808754814324
8	18	17	-0.10640377648408
8	19	18	0.091259598622564
8	20	19	0.0090987256960933
8	21	20	-0.89915141704996
8	22	21	-2.5765247842278
8	23	22	-1.5617496826214
8	24	23	-1.6316359462101
8	25	24	-2.6026178634216
8	26	25	-0.23096030431261
8	27	26	2.240684374969
8	28	27	1.8455726963351
8	29	28	1.78050019952
8	30	29	1.970705549533
8	31	30	1.6907719809701
8	32	31	0.053259000824763
8	33	32	-0.0593537736102
8	34	33	-0.019394498721232
8	35	34	0.077503505891656
8	36	35	0.0078275678446502
8	37	36	-0.08148419994628
8	38	37	0.017589079025202
8	39	38	-0.024622079397087
8	40	39	0.074817628990859
8	41	40	-0.049302461256739
8	42	41	0.093614317842293
8	43	42	-0.0049621417489831
8	44	43	-0.015173091564794
8	45	44	0.003961388256867
8	46	45	-0.089072878758888
8	47	46	0.041741832238621
8	48	47	-0.0017116748774431
8	49	48	0.019815375730396
8	50	49	0.025501057012008
8	51	50	-0.091893632488791
8	52	51	0.048361579561606
8	53	52	0.05428304580273
8	54	53	-0.093537181308493
8	55	54	0.026726024830714
8	56	55	0.046201348118485
8	57	56	0.016487142750993
8	58	57	-0.042271767123601
8	59	58	-0.039240699366202
8	60	59	0.03342690848047
8	61	60	0.049132931581697
8	62	61	-0.010400795512831
8	63	62	-0.020670054752847
8	64	63	0.043986489532982
8	65	64	-0.037562610358
8	66	65	0.030511548989454
8	67	66	-0.069028196809814
8	68	67	0.054902462563478
8	69	68	-0.025059687276372
8	70	69	-0.043009790068027
8	71	70	-0.011700205802917
8	72	71	-0.011719390831422
8	73	72	0.047990855693351
8	74	73	0.049887266790028
8	75	74	-0.020428126633632
8	76	75	-0.03035865865415
8	78	76	-3.1488054835454
8	79	77	-3.0385916171276
8	80	78	-2.7588850870054
8	81	79	-2.1060610180613
8	82	80	-1.5163701279747
8	83	81	-0.78136303662007
8	84	82	-0.14940809831645
8	85	83	-0.43167675860343
8	86	84	0
8	87	85	0
8	88	86	0
8	207	87	0
8	208	88	0
8	1961	89	0
8	1962	90	0
8	4268	91	0
8	4269	92	0
8	5258	93	0
8	5259	94	0
8	5385	95	0
8	5386	96	0
8	5508	97	0
8	5509	98	0
8	5510	99	0
8	5511	100	0
8	5512	101	0
8	5513	102	0
8	5514	103	0
8	5515	104	0
8	5516	105	0
8	5518	106	0
8	5519	107	0
8	5520	108	0
8	5521	109	0
8	5522	110	0
8	5523	111	0
8	5524	112	0
8	5525	113	0
8	5526	114	0
8	5527	115	0
8	5528	116	0
8	5529	117	0
8	5530	118	0
8	5531	119	0
8	5532	120	0
8	5533	121	0
8	5534	122	0
8	5535	123	0
8	5536	124	0
8	5537	125	0
8	5539	126	0.92963598744843
8	5540	127	2.0163394937215
8	5541	128	0.48653114682569
8	5542	129	2.5177087037545
8	5729	130	2.0262722509284
8	5730	131	2.076951830287
8	7557	132	2.0091022460302
8	7558	133	1.8340335993132
8	7746	134	0.088219181266615
8	7747	135	-0.097988042361104
8	7936	136	-0.0018682719813654
8	7937	137	0.10014698617393
8	7938	138	-0.11248190266546
8	7939	139	0.10187790894648
8	7940	140	-0.03310500856489
8	7941	141	0.04741919633234
8	7942	142	-0.024119884998072
8	7943	143	-0.093358118126636
8	7944	144	0.12526141209994
8	7945	145	-0.066539557350334
8	7946	146	0.035170682584866
8	7947	147	0.013670053051319
8	7948	148	-0.10411653909832
8	7949	149	0.089308921298944
8	7950	150	0.0011230985587467
8	7951	151	-0.094861766146497
8	7952	152	0.073987705516629
8	7953	153	0.051801468499471
8	7954	154	-0.097215745737776
8	7955	155	0.057496817435602
8	7957	156	-0.066978109288028
8	7958	157	0.032237475577276
8	7959	158	0.054811907354743
8	7960	159	-0.06131706496468
8	7961	160	-0.0049281180230896
8	7962	161	0.08630394617794
8	7963	162	-0.10920051499037
8	7964	163	0.038911811814177
8	7965	164	-0.025012190483976
8	7966	165	-0.023125382238067
8	7968	166	0.10566607895074
8	7969	167	-0.043757488415578
8	7970	168	0.039456234651153
8	7971	169	-0.0053975355857983
8	7972	170	-0.057311906267424
8	7973	171	-0.00010822163196345
8	7974	172	0.074513422588353
8	7975	173	-0.030588116666769
8	7976	174	-0.069390147502999
8	7977	175	0.086558528281747
8	7978	176	-0.1037409145711
8	7979	177	0.11249414579244
8	7980	178	-0.063669155742973
8	7981	179	0.0011379051720724
8	7982	180	0.0077998632867811
8	7983	181	-0.01576190188527
8	7984	182	0.008201620646286
8	7985	183	0.016768686152064
8	7986	184	-0.014801385772881
8	7987	185	0.045980718550272
8	7989	186	-0.056110908724367
8	7990	187	-0.0062783119664527
8	7991	188	-0.0067022539116444
8	7992	189	-0.021118161173071
8	7993	190	-0.0048720179195527
8	7994	191	0.081474161630032
8	7995	192	-0.085999218984508
8	7996	193	0.036745522869751
8	7997	194	0.017937543757725
8	7998	195	-0.056320039818528
8	8000	196	0.074617592669092
8	8001	197	-0.0085710955061948
8	8002	198	0.051925357959698
8	8003	199	-0.021674993974155
8	8004	200	-0.083439164760058
7	6	5	4.0425376740037
7	7	6	5.9899797741635
7	8	7	7.995898233327
7	9	8	9.9805223184414
7	10	9	11.797888050693
7	11	10	13.711042579702
7	12	11	13.828882815507
7	13	12	13.877056018973
7	14	13	13.822265241607
7	15	14	13.826240355759
7	16	15	13.808232359637
7	17	16	13.886041114451
7	18	17	13.779637337967
7	19	18	13.87089693659
7	20	19	13.879995662286
7	21	20	12.980844245236
7	22	21	10.404319461008
7	23	22	8.8425697783867
7	24	23	7.2109338321766
7	25	24	4.608315968755
7	26	25	4.3773556644424
7	27	26	6.6180400394114
7	28	27	8.4636127357465
7	29	28	10.244112935267
7	30	29	12.2148184848
7	31	30	13.90559046577
7	32	31	13.958849466594
7	33	32	13.899495692984
7	34	33	13.880101194263
7	35	34	13.957604700155
7	36	35	13.965432267999
7	37	36	13.883948068053
7	38	37	13.901537147078
7	39	38	13.876915067681
7	40	39	13.951732696672
7	41	40	13.902430235415
7	42	41	13.996044553258
7	43	42	13.991082411509
7	44	43	13.975909319944
7	45	44	13.979870708201
7	46	45	13.890797829442
7	47	46	13.93253966168
7	48	47	13.930827986803
7	49	48	13.950643362533
7	50	49	13.976144419545
7	51	50	13.884250787057
7	52	51	13.932612366618
7	53	52	13.986895412421
7	54	53	13.893358231112
7	55	54	13.920084255943
7	56	55	13.966285604062
7	57	56	13.982772746813
7	58	57	13.940500979689
7	59	58	13.901260280323
7	60	59	13.934687188803
7	61	60	13.983820120385
7	62	61	13.973419324872
7	63	62	13.952749270119
7	64	63	13.996735759652
7	65	64	13.959173149294
7	66	65	13.989684698284
7	67	66	13.920656501474
7	68	67	13.975558964037
7	69	68	13.950499276761
7	70	69	13.907489486693
7	71	70	13.89578928089
7	72	71	13.884069890059
7	73	72	13.932060745752
7	74	73	13.981948012542
7	75	74	13.961519885908
7	76	75	13.931161227254
7	78	76	10.782355743709
7	79	77	7.7437641265813
7	80	78	4.9848790395759
7	81	79	2.8788180215146
7	82	80	1.3624478935399
7	83	81	0.58108485691988
7	84	82	0.43167675860343
7	85	83	0
7	86	84	0
7	87	85	0
7	88	86	0
7	207	87	0
7	208	88	0
7	1961	89	0
7	1962	90	0
7	4268	91	0
7	4269	92	0
7	5258	93	0
7	5259	94	0
7	5385	95	0
7	5386	96	0
7	5508	97	0
7	5509	98	0
7	5510	99	0
7	5511	100	0
7	5512	101	0
7	5513	102	0
7	5514	103	0
7	5515	104	0
7	5516	105	0
7	5518	106	0
7	5519	107	0
7	5520	108	0
7	5521	109	0
7	5522	110	0
7	5523	111	0
7	5524	112	0
7	5525	113	0
7	5526	114	0
7	5527	115	0
7	5528	116	0
7	5529	117	0
7	5530	118	0
7	5531	119	0
7	5532	120	0
7	5533	121	0
7	5534	122	0
7	5535	123	0
7	5536	124	0
7	5537	125	0
7	5539	126	0.92963598744843
7	5540	127	2.94597548117
7	5541	128	3.4325066279957
7	5542	129	5.9502153317501
7	5729	130	7.9764875826786
7	5730	131	10.053439412966
7	7557	132	12.062541658996
7	7558	133	13.896575258309
7	7746	134	13.984794439576
7	7747	135	13.886806397215
7	7936	136	13.884938125233
7	7937	137	13.985085111407
7	7938	138	13.872603208742
7	7939	139	13.974481117688
7	7940	140	13.941376109123
7	7941	141	13.988795305456
7	7942	142	13.964675420457
7	7943	143	13.871317302331
7	7944	144	13.996578714431
7	7945	145	13.93003915708
7	7946	146	13.965209839665
7	7947	147	13.978879892717
7	7948	148	13.874763353618
7	7949	149	13.964072274917
7	7950	150	13.965195373476
7	7951	151	13.87033360733
7	7952	152	13.944321312846
7	7953	153	13.996122781346
7	7954	154	13.898907035608
7	7955	155	13.956403853043
7	7957	156	13.889425743755
7	7958	157	13.921663219333
7	7959	158	13.976475126687
7	7960	159	13.915158061723
7	7961	160	13.9102299437
7	7962	161	13.996533889878
7	7963	162	13.887333374887
7	7964	163	13.926245186701
7	7965	164	13.901232996217
7	7966	165	13.878107613979
7	7968	166	13.98377369293
7	7969	167	13.940016204515
7	7970	168	13.979472439166
7	7971	169	13.97407490358
7	7972	170	13.916762997312
7	7973	171	13.916654775681
7	7974	172	13.991168198269
7	7975	173	13.960580081602
7	7976	174	13.891189934099
7	7977	175	13.977748462381
7	7978	176	13.87400754781
7	7979	177	13.986501693602
7	7980	178	13.922832537859
7	7981	179	13.923970443031
7	7982	180	13.931770306318
7	7983	181	13.916008404433
7	7984	182	13.924210025079
7	7985	183	13.940978711231
7	7986	184	13.926177325458
7	7987	185	13.972158044009
7	7989	186	13.916047135284
7	7990	187	13.909768823318
7	7991	188	13.903066569406
7	7992	189	13.881948408233
7	7993	190	13.877076390313
7	7994	191	13.958550551943
7	7995	192	13.872551332959
7	7996	193	13.909296855829
7	7997	194	13.927234399586
7	7998	195	13.870914359768
7	8000	196	13.945531952437
7	8001	197	13.936960856931
7	8002	198	13.988886214891
7	8003	199	13.967211220916
7	8004	200	13.883772056156
6	5	4	1578.4472822268
6	6	5	1578.4472822268
6	7	6	1579.5086799795
6	8	7	1581.463551742
6	9	8	1586.5215602648
6	10	9	1592.9907937236
6	11	10	1600.8370654397
6	12	11	1609.9987445669
6	13	12	1619.8356540762
6	14	13	1629.6860002102
6	15	14	1639.5136572961
6	16	15	1649.6652132459
6	17	16	1661.608180549
6	18	17	1673.8534141136
6	19	18	1682.7311922461
6	20	19	1692.0008722087
6	21	20	1695.5930600381
6	22	21	1697.3638825528
6	23	22	1698.4781867648
6	24	23	1699.3508925885
6	25	24	1700.1320105875
6	26	25	1700.6757637747
6	27	26	1700.9763333295
6	28	27	1702.0570003456
6	29	28	1709.2184885982
6	30	29	1718.486905667
6	31	30	1729.7221734524
6	32	31	1742.8166470975
6	33	32	1756.6257166937
6	34	33	1770.5424128035
6	35	34	1784.4431180377
6	36	35	1798.3453813354
6	37	36	1812.2489111917
6	38	37	1826.1338232355
6	39	38	1840.0052115899
6	40	39	1853.8865276687
6	41	40	1867.7613132671
6	42	41	1881.6495191753
6	43	42	1895.5577214556
6	44	43	1909.4568237681
6	45	44	1923.3535482474
6	46	45	1937.2407883173
6	47	46	1951.1177424677
6	48	47	1965.0138413142
6	49	48	1978.8952731136
6	50	49	1992.7971214326
6	51	50	2006.673840113
6	52	51	2020.5721973078
6	53	52	2034.4503232781
6	54	53	2048.3538283575
6	55	54	2062.237618464
6	56	55	2076.1422634898
6	57	56	2090.0447951443
6	58	57	2103.4108257322
6	59	58	2113.9630808383
6	60	59	2119.9180992302
6	61	60	2120.6601283913
6	62	61	2120.1890040431
6	63	62	2119.718827513
6	64	63	2119.2483964385
6	65	64	2118.7775251754
6	66	65	2118.3070764719
6	67	66	2117.8366521066
6	68	67	2117.3661412979
6	69	68	2116.8956251917
6	70	69	2116.4246807871
6	71	70	2115.9545613071
6	72	71	2115.4322686028
6	73	72	2113.4771187576
6	74	73	2111.517916047
6	75	74	2107.6334060756
6	76	75	2103.1587952022
6	78	76	2098.6837609811
6	79	77	2092.6927116383
6	80	78	2088.087683036
6	81	79	2084.9575338745
6	82	80	2083.0455236752
6	83	81	2082.0399566535
6	84	82	2081.5831478545
6	85	83	2081.3531477274
6	86	84	2081.3052834859
6	87	85	2081.3052834859
6	88	86	2081.3052834859
6	207	87	2081.3052834859
6	208	88	2081.3052834859
6	1961	89	2081.3052834859
6	1962	90	2081.3052834859
6	4268	91	2081.3052834859
6	4269	92	2081.3052834859
6	5258	93	2081.3052834859
6	5259	94	2081.3052834859
6	5385	95	2081.3052834859
6	5386	96	2081.3052834859
6	5508	97	2081.3052834859
6	5509	98	2081.3052834859
6	5510	99	2081.3052834859
6	5511	100	2081.3052834859
6	5512	101	2081.3052834859
6	5513	102	2081.3052834859
6	5514	103	2081.3052834859
6	5515	104	2081.3052834859
6	5516	105	2081.3052834859
6	5518	106	2081.3052834859
6	5519	107	2081.3052834859
6	5520	108	2081.3052834859
6	5521	109	2081.3052834859
6	5522	110	2081.3052834859
6	5523	111	2081.3052834859
6	5524	112	2081.3052834859
6	5525	113	2081.3052834859
6	5526	114	2081.3052834859
6	5527	115	2081.3052834859
6	5528	116	2081.3052834859
6	5529	117	2081.3052834859
6	5530	118	2081.3052834859
6	5531	119	2081.3052834859
6	5532	120	2081.3052834859
6	5533	121	2081.3052834859
6	5534	122	2081.3052834859
6	5535	123	2081.3052834859
6	5536	124	2081.3052834859
6	5537	125	2081.3052834859
6	5539	126	2081.3052834859
6	5540	127	2081.0638441248
6	5541	128	2080.0153974071
6	5542	129	2078.139345563
6	5729	130	2075.6323142657
6	5730	131	2070.7778678834
6	7557	132	2064.1456550863
6	7558	133	2055.9618116897
6	7746	134	2046.4253773773
6	7747	135	2036.2598196864
6	7936	136	2026.0855126344
6	7937	137	2015.905601521
6	7938	138	2005.730312122
6	7939	139	1995.5609422559
6	7940	140	1985.3786339052
6	7941	141	1975.3463739194
6	7942	142	1965.6366419662
6	7943	143	1955.9257707894
6	7944	144	1946.2183023794
6	7945	145	1936.4944408061
6	7946	146	1926.7849487113
6	7947	147	1917.0704023903
6	7948	148	1907.3567981068
6	7949	149	1897.6434873212
6	7950	150	1887.9190545566
6	7951	151	1878.1962696835
6	7952	152	1868.4139160393
6	7953	153	1858.4470912991
6	7954	154	1848.4661667198
6	7955	155	1838.4931078535
6	7957	156	1828.502170098
6	7958	157	1818.5420667967
6	7959	158	1808.5612646705
6	7960	159	1798.5988022368
6	7961	160	1788.6264103316
6	7962	161	1778.6717865923
6	7963	162	1768.6932074437
6	7964	163	1759.042962891
6	7965	164	1749.4434632529
6	7966	165	1739.8278801003
6	7968	166	1730.0789860468
6	7969	167	1720.3286126759
6	7970	168	1710.5738902204
6	7971	169	1700.8122589486
6	7972	170	1691.0551418923
6	7973	171	1681.2930759238
6	7974	172	1671.543768703
6	7975	173	1661.7869498404
6	7976	174	1652.0128652621
6	7977	175	1642.2546215942
6	7978	176	1632.498144988
6	7979	177	1622.7473115381
6	7980	178	1612.989546556
6	7981	179	1603.2354215505
6	7982	180	1593.4777647434
6	7983	181	1583.7294022096
6	7984	182	1573.9776748922
6	7985	183	1564.2227325644
6	7986	184	1554.4618452666
6	7987	185	1547.0201483155
6	7989	186	1537.1270986022
6	7990	187	1527.2286744732
6	7991	188	1517.3535874858
6	7992	189	1507.4730835166
6	7993	190	1497.6425909633
6	7994	191	1488.5277078226
6	7995	192	1479.4307560204
6	7996	193	1470.3314347109
6	7997	194	1461.2355534257
6	7998	195	1452.1267471714
6	8000	196	1441.2640838409
6	8001	197	1433.2188847754
6	8002	198	1425.1727996888
6	8003	199	1417.1217298172
6	8004	200	1409.0878668679
5	5	4	2414.8859801291
5	6	5	2414.8859801291
5	7	6	2411.9954222892
5	8	7	2407.2506839979
5	9	8	2402.2569066116
5	10	9	2395.8698252906
5	11	10	2388.1231925822
5	12	11	2379.0778566878
5	13	12	2369.3658650925
5	14	13	2359.6406075037
5	15	14	2349.9377508366
5	16	15	2340.5696662485
5	17	16	2334.4685549028
5	18	17	2338.029717051
5	19	18	2348.6255299923
5	20	19	2358.9043307323
5	21	20	2371.8350753159
5	22	21	2385.3663703802
5	23	22	2396.8549781273
5	24	23	2406.0844248855
5	25	24	2414.3452692438
5	26	25	2420.0958222281
5	27	26	2423.9862948015
5	28	27	2429.4993003103
5	29	28	2431.427825698
5	30	29	2432.8362908805
5	31	30	2434.5436464486
5	32	31	2436.5335342661
5	33	32	2438.3299803259
5	34	33	2439.1886723154
5	35	34	2440.1890011905
5	36	35	2441.1999299027
5	37	36	2442.2109507151
5	38	37	2443.2206176987
5	39	38	2444.2293012826
5	40	39	2445.238706779
5	41	40	2446.2476373996
5	42	41	2447.2575439028
5	43	42	2448.2689044791
5	44	43	2449.2796033344
5	45	44	2450.2901292811
5	46	45	2449.9548820338
5	47	46	2448.8430623495
5	48	47	2447.7297087947
5	49	48	2446.6175303617
5	50	49	2445.50371616
5	51	50	2444.3919153415
5	52	51	2443.2783808481
5	53	52	2442.1664672778
5	54	53	2441.0525203367
5	55	54	2440.0270559463
5	56	55	2439.0859457215
5	57	56	2438.5427623577
5	58	57	2435.2747637217
5	59	58	2426.4685505354
5	60	59	2413.9258769645
5	61	60	2400.1156476981
5	62	61	2386.1670940989
5	63	62	2372.2466024841
5	64	63	2358.318574614
5	65	64	2344.3775140973
5	66	65	2330.4489642661
5	67	66	2316.5211350349
5	68	67	2302.5907464555
5	69	68	2288.6602010678
5	70	69	2274.7169750297
5	71	70	2260.7981725226
5	72	71	2246.862371614
5	73	72	2233.0750424088
5	74	73	2219.2591332041
5	75	74	2205.926626337
5	76	75	2192.7331559004
5	78	76	2179.5384372135
5	79	77	2168.8068011735
5	80	78	2160.9842224129
5	81	79	2155.6670266984
5	82	80	2152.4190880489
5	83	81	2150.7109277087
5	84	82	2149.9349449468
5	85	83	2149.5442428981
5	86	84	2149.4629357386
5	87	85	2149.4629357386
5	88	86	2149.4629357386
5	207	87	2149.4629357386
5	208	88	2149.4629357386
5	1961	89	2149.4629357386
5	1962	90	2149.4629357386
5	4268	91	2149.4629357386
5	4269	92	2149.4629357386
5	5258	93	2149.4629357386
5	5259	94	2149.4629357386
5	5385	95	2149.4629357386
5	5386	96	2149.4629357386
5	5508	97	2149.4629357386
5	5509	98	2149.4629357386
5	5510	99	2149.4629357386
5	5511	100	2149.4629357386
5	5512	101	2149.4629357386
5	5513	102	2149.4629357386
5	5514	103	2149.4629357386
5	5515	104	2149.4629357386
5	5516	105	2149.4629357386
5	5518	106	2149.4629357386
5	5519	107	2149.4629357386
5	5520	108	2149.4629357386
5	5521	109	2149.4629357386
5	5522	110	2149.4629357386
5	5523	111	2149.4629357386
5	5524	112	2149.4629357386
5	5525	113	2149.4629357386
5	5526	114	2149.4629357386
5	5527	115	2149.4629357386
5	5528	116	2149.4629357386
5	5529	117	2149.4629357386
5	5530	118	2149.4629357386
5	5531	119	2149.4629357386
5	5532	120	2149.4629357386
5	5533	121	2149.4629357386
5	5534	122	2149.4629357386
5	5535	123	2149.4629357386
5	5536	124	2149.4629357386
5	5537	125	2149.4629357386
5	5539	126	2149.4629357386
5	5540	127	2149.0528018215
5	5541	128	2147.2718015851
5	5542	129	2144.084945525
5	5729	130	2139.9323374917
5	5730	131	2134.784539554
5	7557	132	2128.5717003463
5	7558	133	2120.9053445344
5	7746	134	2111.9719259598
5	7747	135	2102.4491652591
5	7936	136	2092.9182084436
5	7937	137	2083.3820019276
5	7938	138	2073.8501248817
5	7939	139	2064.3237930594
5	7940	140	2054.7853408902
5	7941	141	2045.1241824335
5	7942	142	2035.1357628051
5	7943	143	2025.1461712557
5	7944	144	2015.1600801388
5	7945	145	2005.1571253428
5	7946	146	1995.1689524571
5	7947	147	1985.1755802797
5	7948	148	1975.1831771783
5	7949	149	1965.1910759984
5	7950	150	1955.1875336175
5	7951	151	1945.1856864257
5	7952	152	1935.2539373806
5	7953	153	1925.5277409536
5	7954	154	1915.7877850994
5	7955	155	1906.0555050556
5	7957	156	1896.3057777728
5	7958	157	1886.5861405096
5	7959	158	1876.8463041516
5	7960	159	1867.1243647126
5	7961	160	1857.3927355278
5	7962	161	1847.6784455342
5	7963	162	1837.9407784854
5	7964	163	1827.8834034114
5	7965	164	1817.7759547891
5	7966	165	1807.6984678884
5	7968	166	1797.7507439493
5	7969	167	1787.8015105212
5	7970	168	1777.8478393096
5	7971	169	1767.887118375
5	7972	170	1757.9310037236
5	7973	171	1747.9698392267
5	7974	172	1738.0216936939
5	7975	173	1728.0658833184
5	7976	174	1718.09245509
5	7977	175	1708.1351908504
5	7978	176	1698.179729711
5	7979	177	1688.2300268216
5	7980	178	1678.27325103
5	7981	179	1668.3201894531
5	7982	180	1658.3635240434
5	7983	181	1648.4163424638
5	7984	182	1638.4657274766
5	7985	183	1628.511831908
5	7986	184	1618.5518701201
5	7987	185	1606.4927197422
5	7989	186	1596.6922887327
5	7990	187	1586.8865336229
5	7991	188	1577.1038971727
5	7992	189	1567.3158944548
5	7993	190	1557.4917727052
5	7994	191	1546.9531630171
5	7995	192	1536.4352855068
5	7996	193	1525.9146683773
5	7997	194	1515.3980285969
5	7998	195	1504.8664449927
5	8000	196	1495.6835153014
5	8001	197	1484.2673655327
5	8002	198	1472.8499584979
5	8003	199	1461.4254780472
5	8004	200	1450.0254142436
54	34	33	4.4654144542034
54	35	34	5.0736288288642
54	36	35	6.5003253611678
54	37	36	7.8342005736709
54	38	37	8.2192715786142
54	39	38	2.0878491414744
54	40	39	1.852323959212
54	41	40	2.3105485279139
54	42	41	1.7784726977418
54	43	42	2.0052274149834
54	44	43	1.9008087301602
54	45	44	2.4409008440009
54	46	45	1.9310990962417
54	47	46	1.9198397040568
54	48	47	0.973
54	49	48	0.973
54	50	49	0.973
54	51	50	1.3608302694114
54	52	51	0.973
54	53	52	0.973
54	54	53	5.184935816776
54	55	54	5.8916614605314
54	56	55	6.3479702360366
54	57	56	7.921999441144
54	58	57	7.6510802982193
54	59	58	1.8372209578198
54	60	59	1.8615060243298
54	61	60	1.9847374119693
54	62	61	2.3743664181622
54	63	62	2.1246117638948
54	64	63	1.624125568904
54	65	64	2.1372042694608
54	66	65	1.9852002402299
54	67	66	1.9744675282212
54	68	67	2.1631406560481
54	69	68	2.0370422560844
54	70	69	1.9460966935023
54	71	70	2.2243258707623
54	72	71	2.1036918123919
54	73	72	1.8617874503507
54	74	73	2.2730233932817
54	75	74	2.0444548706331
54	76	75	1.7022264745836
54	78	76	2.1874513561743
54	79	77	1.9267802728359
54	80	78	2.1186333180245
54	81	79	1.8545368441952
54	82	80	1.9762726122655
54	83	81	2.329541735546
54	84	82	2.040845848095
54	85	83	2.1499178336586
54	86	84	1.8684832879437
54	87	85	2.0477387033513
54	88	86	1.8758011718824
54	207	87	2.1509465778145
54	208	88	2.0563865205322
54	1961	89	1.977053419609
54	1962	90	2.071000674417
54	4268	91	2.0058741631469
54	4269	92	2.0611820611923
54	5258	93	2.0151735999516
54	5259	94	2.1782878734222
54	5385	95	1.7424847504855
54	5386	96	2.1619546973747
54	5508	97	1.9433863308756
54	5509	98	2.3234083057075
54	5510	99	0.973
54	5511	100	0.973
54	5512	101	0.973
54	5513	102	0.973
54	5514	103	0.973
54	5515	104	0.973
54	5516	105	0.973
54	5518	106	0.973
54	5519	107	0.973
54	5520	108	0.973
54	5521	109	0.973
54	5522	110	0.973
54	5523	111	0.973
54	5524	112	0.973
54	5525	113	0.973
54	5526	114	0.973
54	5527	115	0.973
54	5528	116	0.973
54	5529	117	0.973
54	5530	118	0.973
54	5531	119	0.973
54	5532	120	0.973
54	5533	121	0.973
54	5534	122	0.973
54	5535	123	0.973
54	5536	124	0.973
54	5537	125	0.973
54	5539	126	0.973
54	5540	127	0.973
54	5541	128	0.973
54	5542	129	0.973
54	5729	130	0.973
54	5730	131	0.973
54	7557	132	0.973
54	7558	133	0.973
54	7746	134	0.973
54	7747	135	0.973
54	7936	136	0.973
54	7937	137	0.973
54	7938	138	0.973
54	7939	139	0.973
54	7940	140	0.973
54	7941	141	0.973
54	7942	142	0.973
54	7943	143	0.973
54	7944	144	0.973
54	7945	145	0.973
54	7946	146	0.973
54	7947	147	0.973
54	7948	148	0.973
54	7949	149	0.973
54	7950	150	0.973
54	7951	151	0.973
54	7952	152	0.973
54	7953	153	0.973
54	7954	154	0.973
54	7955	155	0.973
54	7957	156	2.5398784847748
54	7958	157	3.5710409523471
54	7959	158	4.3682643390962
54	7960	159	5.5304391169607
54	7961	160	7.0033885056174
54	7962	161	0.973
54	7963	162	0.973
54	7964	163	0.973
54	7965	164	2.8521113001452
54	7966	165	5.1242055166483
54	7968	166	6.1754558974773
54	7969	167	7.5158202000865
54	7970	168	8.8848336874943
54	7971	169	3.4219807399154
54	7972	170	2.1320612319563
54	7973	171	1.8204816449484
54	7974	172	2.1423381871159
54	7975	173	2.1275762754958
54	7976	174	2.0092495728036
54	7977	175	2.0676779761931
54	7978	176	1.8775909671115
54	7979	177	2.2660221507851
54	7980	178	1.727173889423
54	7981	179	2.2719105086863
54	7982	180	1.9586295959805
54	7983	181	2.1285354506244
54	7984	182	2.084914153992
54	7985	183	1.6693626786142
54	7986	184	2.1181737627298
54	7987	185	1.9340219765248
54	7989	186	2.2853528835894
54	7990	187	2.1194837324468
54	7991	188	1.7077291725858
54	7992	189	2.1249402082979
54	7993	190	2.1647278039944
54	7994	191	2.1160962652217
54	7995	192	1.82649188015
54	7996	193	2.2693149863805
54	7997	194	1.8236581194687
54	7998	195	2.0398467604319
54	8000	196	2.1403792282729
54	8001	197	1.9829317033568
54	8002	198	1.8596890768758
54	8003	199	2.1980614374704
54	8004	200	1.9106015098291
53	34	33	2.1108386883535
53	35	34	1.8691156523162
53	36	35	2.0254057548312
53	37	36	2.0776507037738
53	38	37	1.8608188961036
53	39	38	0.019533643305767
53	40	39	-0.049742171096149
53	41	40	0.085004836751613
53	42	41	-0.072280976942274
53	43	42	-0.0040022042999048
53	44	43	-0.034438937976956
53	45	44	0.1234809487802
53	46	45	-0.028024048998487
53	47	46	-0.03053516549291
53	48	47	-1.188999807438
53	49	48	-2.3713316985366
53	50	49	-2.2913019514486
53	51	50	-0.092053512224842
53	52	51	-2.7327694335153
53	53	52	-1.3258765114396
53	54	53	2.4693662577961
53	55	54	2.12749273255
53	56	55	1.8702119333204
53	57	56	2.0340334144491
53	58	57	1.6642719219845
53	59	58	-0.058081688408274
53	60	59	-0.04952470080927
53	61	60	-0.012338334685191
53	62	61	0.10040123965824
53	63	62	0.02542294482002
53	64	63	-0.12030795856379
53	65	64	0.032031546502841
53	66	65	-0.012925733730663
53	67	66	-0.015671704655979
53	68	67	0.03940826722188
53	69	68	0.0017723501380527
53	70	69	-0.024625178959687
53	71	70	0.056483946428635
53	72	71	0.019981009552721
53	73	72	-0.050489340359347
53	74	73	0.069578633683269
53	75	74	0.0017572802235364
53	76	75	-0.097424090469721
53	78	76	0.045881251569371
53	79	77	-0.030813149621245
53	80	78	0.025573528825772
53	81	79	-0.051661419356241
53	82	80	-0.014855802219827
53	83	81	0.087579179583118
53	84	82	0.0017236252827555
53	85	83	0.033052734031809
53	86	84	-0.049067566599698
53	87	85	0.0041363581782203
53	88	86	-0.045763913826086
53	207	87	0.035181148496923
53	208	88	0.0068244753940956
53	1961	89	-0.016301492801867
53	1962	90	0.011327437029687
53	4268	91	-0.0078217150154529
53	4269	92	0.0083877628739
53	5258	93	-0.0051497571193622
53	5259	94	0.042005732280668
53	5385	95	-0.08528355127666
53	5386	96	0.038700135878752
53	5508	97	-0.025659335926175
53	5509	98	0.084628021754325
53	5510	99	-2.0793120581818
53	5511	100	-2.4015877184608
53	5512	101	-2.2871890414615
53	5513	102	-2.0547016602057
53	5514	103	-1.8502424696211
53	5515	104	-1.4535976492622
53	5516	105	-1.0186477853521
53	5518	106	-0.84679565296563
53	5519	107	0
53	5520	108	0
53	5521	109	0
53	5522	110	0
53	5523	111	0
53	5524	112	0
53	5525	113	0
53	5526	114	0
53	5527	115	0
53	5528	116	0
53	5529	117	0
53	5530	118	0
53	5531	119	0
53	5532	120	0
53	5533	121	0
53	5534	122	0
53	5535	123	0
53	5536	124	0
53	5537	125	0
53	5539	126	0
53	5540	127	0
53	5541	128	0
53	5542	129	0
53	5729	130	0
53	5730	131	0
53	7557	132	0
53	7558	133	0
53	7746	134	0
53	7747	135	0
53	7936	136	0
53	7937	137	0
53	7938	138	0
53	7939	139	0
53	7940	140	0
53	7941	141	0
53	7942	142	0
53	7943	143	0
53	7944	144	0
53	7945	145	0
53	7946	146	0
53	7947	147	0
53	7948	148	0
53	7949	149	0
53	7950	150	0
53	7951	151	0
53	7952	152	0
53	7953	153	0
53	7954	154	0
53	7955	155	0
53	7957	156	2.3367656559357
53	7958	157	2.0960052301723
53	7959	158	1.9144283985696
53	7960	159	1.976793066205
53	7961	160	2.1033311537071
53	7962	161	-0.81118804015732
53	7963	162	-2.9327153414515
53	7964	163	-2.5521319187296
53	7965	164	1.1562366888546
53	7966	165	2.0494173694053
53	7968	166	2.0140458237287
53	7969	167	2.0758920584037
53	7970	168	2.1123307466414
53	7971	169	0.41280921956628
53	7972	170	0.028265631911346
53	7973	171	-0.062594080639538
53	7974	172	0.032305392725394
53	7975	173	0.027039515997748
53	7976	174	-0.0078540270263332
53	7977	175	0.0092151745897731
53	7978	176	-0.045967121717986
53	7979	177	0.067339024876709
53	7980	178	-0.090218058265744
53	7981	179	0.069806029084138
53	7982	180	-0.02253455437487
53	7983	181	0.027101504798047
53	7984	182	0.013727060921957
53	7985	183	-0.10703457464231
53	7986	184	0.02618755134754
53	7987	185	-0.027926731135231
53	7989	186	0.074371030491312
53	7990	187	0.024299187660217
53	7991	188	-0.095604977235199
53	7992	189	0.028100047213957
53	7993	190	0.038675775115843
53	7994	191	0.023466272316874
53	7995	192	-0.060895803824533
53	7996	193	0.068661488352809
53	7997	194	-0.061915475230199
53	7998	195	0.0024166095582778
53	8000	196	0.031337671924847
53	8001	197	-0.015015054491814
53	8002	198	-0.050336461495608
53	8003	199	0.049033490207512
53	8004	200	-0.035510899745859
52	33	32	3.8781328956006
52	34	33	5.9889715839541
52	35	34	7.8580872362704
52	36	35	9.8834929911015
52	37	36	11.961143694875
52	38	37	13.821962590979
52	39	38	13.841496234285
52	40	39	13.791754063189
52	41	40	13.87675889994
52	42	41	13.804477922998
52	43	42	13.800475718698
52	44	43	13.766036780721
52	45	44	13.889517729501
52	46	45	13.861493680503
52	47	46	13.83095851501
52	48	47	12.641958707572
52	49	48	10.270627009035
52	50	49	7.9793250575866
52	51	50	7.8872715453617
52	52	51	5.1545021118464
52	53	52	3.8286256004068
52	54	53	6.2979918582029
52	55	54	8.4254845907529
52	56	55	10.295696524073
52	57	56	12.329729938522
52	58	57	13.994001860507
52	59	58	13.935920172099
52	60	59	13.886395471289
52	61	60	13.874057136604
52	62	61	13.974458376262
52	63	62	13.999881321082
52	64	63	13.879573362519
52	65	64	13.911604909021
[...]
49	7936	136	1.7015894171642
49	7937	137	1.6058481954617
49	7938	138	1.4951182769464
49	7939	139	1.5732099958636
49	7940	140	1.4249099012019
49	7941	141	1.4168768380813
49	7942	142	1.2554455633742
49	7943	143	1.7425298897252
49	7944	144	0.973
49	7945	145	2.3445566601693
49	7946	146	5.2342541862826
49	7947	147	6.3949170471936
49	7948	148	7.1832131848338
49	7949	149	7.507622093624
49	7950	150	5.1487288255352
49	7951	151	1.9016730852031
49	7952	152	2.0986160602373
49	7953	153	1.8913510163998
49	7954	154	2.0480330298232
49	7955	155	2.2811608405832
49	7957	156	1.643420895769
49	7958	157	2.3750554495132
49	7959	158	1.762982106466
49	7960	159	2.0922353636345
49	7961	160	2.0352259295592
49	7962	161	1.8635568121843
49	7963	162	2.3859601484965
49	7964	163	2.06784594053
49	7965	164	1.686838665895
49	7966	165	2.0595738432223
49	7968	166	2.276300263208
49	7969	167	1.735511575793
49	7970	168	2.3046667728345
49	7971	169	2.1133776428981
49	7972	170	1.7301507949463
49	7973	171	2.0936711096387
49	7974	172	2.1542459111535
49	7975	173	2.0573783031912
49	7976	174	2.0328379109625
49	7977	175	2.1922742309598
49	7978	176	1.8633202834042
49	7979	177	2.149720515273
49	7980	178	2.0378634878787
49	7981	179	2.051679147445
49	7982	180	2.0186722991615
49	7983	181	1.7906648685066
49	7984	182	2.2327002992309
49	7985	183	2.0353199468576
49	7986	184	1.7434182125078
49	7987	185	2.1327350259785
49	7989	186	2.2679690015933
49	7990	187	1.9433705220726
49	7991	188	1.8377789393573
49	7992	189	1.9729368675087
49	7993	190	2.3616900553168
49	7994	191	1.7404084652403
49	7995	192	2.0651826249807
49	7996	193	2.3372085391536
49	7997	194	1.963861445121
49	7998	195	1.8092106457634
49	8000	196	2.2316589224365
49	8001	197	2.13126449009
49	8002	198	1.6848847184049
49	8003	199	1.9924664758703
49	8004	200	2.2186151260445
48	31	30	1.9568191743502
48	32	31	1.9572691578092
48	33	32	1.7314382667607
48	34	33	1.713887941076
48	35	34	1.7811930986517
48	36	35	0.5455487020282
48	37	36	0.014625610450748
48	38	37	-0.12835575377569
48	39	38	0.086069189966656
48	40	39	-0.0032880703615952
48	41	40	0.0367009765096
48	42	41	-0.10748315524077
48	43	42	0.050165324136614
48	44	43	0.053652309875471
48	45	44	-1.3927549439091
48	46	45	-2.3100111124945
48	47	46	-2.2251499659377
48	48	47	-0.048479581583107
48	49	48	-2.7187145226647
48	50	49	-1.3405991529233
48	51	50	2.332728817747
48	52	51	2.0231203507166
48	53	52	1.8883653629874
48	54	53	2.006740005943
48	55	54	1.8673009272524
48	56	55	-0.084638701267542
48	57	56	0.09849415921839
48	58	57	0.00537992921425
48	59	58	-0.064389257105066
48	60	59	-0.0091464570048263
48	61	60	0.081863851931411
48	62	61	0.011321710660123
48	63	62	-0.12257896858733
48	64	63	0.095039613645058
48	65	64	-0.041067937707995
48	66	65	0.023292321457994
48	67	66	-0.034027653224767
48	68	67	0.069706433343235
48	69	68	-0.061600774463731
48	70	69	0.055408083661458
48	71	70	-0.027394999936222
48	72	71	0.014955741502344
48	73	72	-0.081735791058746
48	74	73	0.07110673281597
48	75	74	0.03683202761691
48	76	75	-0.047641739291139
48	78	76	0.041505734035745
48	79	77	-0.055693347149063
48	80	78	-0.060849470170213
48	81	79	0.0160685518221
48	82	80	0.030786899500526
48	83	81	-0.029142764753198
48	84	82	0.10338073273888
48	85	83	-0.062786457769107
48	86	84	0.012529305473436
48	87	85	-0.07114103670232
48	88	86	0.027723220291083
48	207	87	0.04872392643243
48	208	88	0.03577303858474
48	1961	89	0.012846215711905
48	1962	90	-0.04731580217136
48	4268	91	-0.053079487648793
48	4269	92	0.075722418022343
48	5258	93	-0.070170230655931
48	5259	94	0.086197501881978
48	5385	95	-0.058015003560577
48	5386	96	-1.0415817406085
48	5508	97	-2.3547175345106
48	5509	98	-2.3405837220355
48	5510	99	-2.2320040814184
48	5511	100	-1.9331655225584
48	5512	101	-1.6216955560758
48	5513	102	-1.222768029599
48	5514	103	-0.68643540517451
48	5515	104	-0.051417844916983
48	5516	105	-0.44718888348027
48	5518	106	0
48	5519	107	0
48	5520	108	0
48	5521	109	0
48	5522	110	0
48	5523	111	0
48	5524	112	0
48	5525	113	0
48	5526	114	0
48	5527	115	0
48	5528	116	0
48	5529	117	0
48	5530	118	0
48	5531	119	0
48	5532	120	0
48	5533	121	0
48	5534	122	0
48	5535	123	0
48	5536	124	0
48	5537	125	0
48	5539	126	0.20938865522275
48	5540	127	0.21420873894061
48	5541	128	0.0249770286662
48	5542	129	-0.01974638618587
48	5729	130	0.020999886635109
48	5730	131	-0.0074286335305078
48	7557	132	0.28314000198314
48	7558	133	0.80752925209689
48	7746	134	0.69815498266207
48	7747	135	0.53272774276527
48	7936	136	0.53887335144641
48	7937	137	0.35689159969367
48	7938	138	0.20733676919078
48	7939	139	0.25912264371503
48	7940	140	0.10202084364186
48	7941	141	0.087728682884685
48	7942	142	-0.065117208187107
48	7943	143	0.36081090963588
48	7944	144	-0.40826982894308
48	7945	145	0.81165639960183
48	7946	146	2.1638858542452
48	7947	147	2.1239184190473
48	7948	148	1.9837532304577
48	7949	149	1.7679876518249
48	7950	150	0.92380499020781
48	7951	151	-0.038986439798029
48	7952	152	0.019033402765636
48	7953	153	-0.041445179483853
48	7954	154	0.0051127103483299
48	7955	155	0.072027522230055
48	7957	156	-0.11453917977167
48	7958	157	0.10039914753521
48	7959	158	-0.079316215631552
48	7960	159	0.018383460652549
48	7961	160	0.0013473963644355
48	7962	161	-0.048521068105474
48	7963	162	0.10379865516908
48	7964	163	0.0090687707741743
48	7965	164	-0.10164035418769
48	7966	165	0.0094685785728501
48	7968	166	0.071647336711177
48	7969	167	-0.086952252942138
48	7970	168	0.080316083179788
48	7971	169	0.022720536484847
48	7972	170	-0.08889446524903
48	7973	171	0.019083156308625
48	7974	172	0.035964823763351
48	7975	173	0.0069304137304425
48	7976	174	-0.00035645538940976
48	7977	175	0.04552270765882
48	7978	176	-0.050631316876972
48	7979	177	0.033471430959182
48	7980	178	0.00026650133309758
48	7981	179	0.0042365497746513
48	7982	180	-0.0053941953624594
48	7983	181	-0.071269305818715
48	7984	182	0.058567956429906
48	7985	183	-6.5417133736645e-05
48	7986	184	-0.084727542763575
48	7987	185	0.030632965434341
48	7989	186	0.068537401121576
48	7990	187	-0.027022941522301
48	7991	188	-0.056925138975494
48	7992	189	-0.016102756822946
48	7993	190	0.096483322430867
48	7994	191	-0.085862899189815
48	7995	192	0.010801560597029
48	7996	193	0.088714438122697
48	7997	194	-0.021384297534825
48	7998	195	-0.065634417301043
48	8000	196	0.058402181286365
48	8001	197	0.027672596483026
48	8002	198	-0.1023591803899
48	8003	199	-0.010166514993179
48	8004	200	0.055532860367093
47	30	29	4.1885270936726
47	31	30	6.1453462680228
47	32	31	8.102615425832
47	33	32	9.8340536925927
47	34	33	11.547941633669
47	35	34	13.32913473232
47	36	35	13.874683434349
47	37	36	13.889309044799
47	38	37	13.760953291024
47	39	38	13.84702248099
47	40	39	13.843734410629
47	41	40	13.880435387138
47	42	41	13.772952231898
47	43	42	13.823117556034
47	44	43	13.87676986591
47	45	44	12.484014922
47	46	45	10.174003809506
47	47	46	7.9488538435683
47	48	47	7.9003742619851
47	49	48	5.1816597393205
47	50	49	3.8410605863972
47	51	50	6.1737894041441
47	52	51	8.1969097548608
47	53	52	10.085275117848
47	54	53	12.092015123791
47	55	54	13.959316051044
47	56	55	13.874677349776
47	57	56	13.973171508994
47	58	57	13.978551438209
47	59	58	13.914162181104
47	60	59	13.905015724099
47	61	60	13.98687957603
47	62	61	13.99820128669
47	63	62	13.875622318103
47	64	63	13.970661931748
47	65	64	13.92959399404
47	66	65	13.952886315498
47	67	66	13.918858662273
47	68	67	13.988565095617
47	69	68	13.926964321153
47	70	69	13.982372404814
47	71	70	13.954977404878
47	72	71	13.96993314638
47	73	72	13.888197355322
47	74	73	13.959304088138
47	75	74	13.996136115754
47	76	75	13.948494376463
47	78	76	13.990000110499
47	79	77	13.93430676335
47	80	78	13.87345729318
47	81	79	13.889525845002
47	82	80	13.920312744502
47	83	81	13.891169979749
47	84	82	13.994550712488
47	85	83	13.931764254719
47	86	84	13.944293560192
47	87	85	13.87315252349
47	88	86	13.900875743781
47	207	87	13.949599670214
47	208	88	13.985372708798
47	1961	89	13.99821892451
47	1962	90	13.950903122339
47	4268	91	13.89782363469
47	4269	92	13.973546052712
47	5258	93	13.903375822057
47	5259	94	13.989573323939
47	5385	95	13.931558320378
47	5386	96	12.889976579769
47	5508	97	10.535259045259
47	5509	98	8.1946753232233
47	5510	99	5.9626712418049
47	5511	100	4.0295057192465
47	5512	101	2.4078101631707
47	5513	102	1.1850421335718
47	5514	103	0.49860672839725
47	5515	104	0.44718888348027
47	5516	105	0
47	5518	106	0
47	5519	107	0
47	5520	108	0
47	5521	109	0
47	5522	110	0
47	5523	111	0
47	5524	112	0
47	5525	113	0
47	5526	114	0
47	5527	115	0
47	5528	116	0
47	5529	117	0
47	5530	118	0
47	5531	119	0
47	5532	120	0
47	5533	121	0
47	5534	122	0
47	5535	123	0
47	5536	124	0
47	5537	125	0
47	5539	126	0.20938865522275
47	5540	127	0.42359739416335
47	5541	128	0.44857442282955
47	5542	129	0.42882803664368
47	5729	130	0.44982792327879
47	5730	131	0.44239928974828
47	7557	132	0.72553929173143
47	7558	133	1.5330685438283
47	7746	134	2.2312235264904
47	7747	135	2.7639512692557
47	7936	136	3.3028246207021
47	7937	137	3.6597162203957
47	7938	138	3.8670529895865
47	7939	139	4.1261756333016
47	7940	140	4.2281964769434
47	7941	141	4.3159251598281
47	7942	142	4.250807951641
47	7943	143	4.6116188612769
47	7944	144	4.2033490323338
47	7945	145	5.0150054319356
47	7946	146	7.1788912861808
47	7947	147	9.302809705228
47	7948	148	11.286562935686
47	7949	149	13.054550587511
47	7950	150	13.978355577718
47	7951	151	13.93936913792
47	7952	152	13.958402540686
47	7953	153	13.916957361202
47	7954	154	13.922070071551
47	7955	155	13.994097593781
47	7957	156	13.879558414009
47	7958	157	13.979957561544
47	7959	158	13.900641345913
47	7960	159	13.919024806565
47	7961	160	13.92037220293
47	7962	161	13.871851134824
47	7963	162	13.975649789993
47	7964	163	13.984718560767
47	7965	164	13.88307820658
47	7966	165	13.892546785153
47	7968	166	13.964194121864
47	7969	167	13.877241868922
47	7970	168	13.957557952101
47	7971	169	13.980278488586
47	7972	170	13.891384023337
47	7973	171	13.910467179646
47	7974	172	13.946432003409
47	7975	173	13.95336241714
47	7976	174	13.95300596175
47	7977	175	13.998528669409
47	7978	176	13.947897352532
47	7979	177	13.981368783491
47	7980	178	13.981635284824
47	7981	179	13.985871834599
47	7982	180	13.980477639236
47	7983	181	13.909208333418
47	7984	182	13.967776289848
47	7985	183	13.967710872714
47	7986	184	13.88298332995
47	7987	185	13.913616295385
47	7989	186	13.982153696506
47	7990	187	13.955130754984
47	7991	188	13.898205616008
47	7992	189	13.882102859186
47	7993	190	13.978586181616
47	7994	191	13.892723282427
47	7995	192	13.903524843024
47	7996	193	13.992239281146
47	7997	194	13.970854983611
47	7998	195	13.90522056631
47	8000	196	13.963622747597
47	8001	197	13.99129534408
47	8002	198	13.88893616369
47	8003	199	13.878769648697
47	8004	200	13.934302509064
46	29	28	1578.4646326732
46	30	29	1578.4646326732
46	31	30	1579.5986517062
46	32	31	1581.7423672481
46	33	32	1586.9080099538
46	34	33	1593.3719751006
46	35	34	1601.0871393541
46	36	35	1610.0351614747
46	37	36	1619.8598473864
46	38	37	1629.6911440864
46	39	38	1639.530417718
46	40	39	1649.6739925323
46	41	40	1661.6279815631
46	42	41	1673.8816657187
46	43	42	1682.7560368627
46	44	43	1692.0128514823
46	45	44	1695.5999165168
46	46	45	1697.306546744
46	47	46	1698.4143366097
46	48	47	1699.2522509955
46	49	48	1699.99092039
46	50	49	1700.585499499
46	51	50	1700.9266446279
46	52	51	1701.4301908994
46	53	52	1707.6362714609
46	54	53	1716.7571854917
46	55	54	1727.8339322917
46	56	55	1740.8635680582
46	57	56	1754.6674355241
46	58	57	1768.5924180076
46	59	58	1782.4900942137
46	60	59	1796.3835249227
46	61	60	1810.295890959
46	62	61	1824.2029342465
46	63	62	1838.1324145859
46	64	63	1851.9968899293
46	65	64	1865.8873176025
46	66	65	1879.8015412651
46	67	66	1893.708773436
46	68	67	1907.6108170124
46	69	68	1921.518198492
46	70	69	1935.436019076
46	71	70	1949.3382818336
46	72	71	1963.2310220618
46	73	72	1977.1150795827
46	74	73	1991.0261905957
46	75	74	2004.9076367822
46	76	75	2018.7962823557
46	78	76	2032.6964808721
46	79	77	2046.5920114908
46	80	78	2060.4812892936
46	81	79	2074.3615958327
46	82	80	2088.2480693581
46	83	81	2101.8726252643
46	84	82	2112.9942486044
46	85	83	2119.4660495203
46	86	84	2120.7221720051
46	87	85	2120.2512520831
46	88	86	2119.7810029797
46	207	87	2119.3106335914
46	208	88	2118.8392896932
46	1961	89	2118.3685813732
46	1962	90	2117.8980129417
46	4268	91	2117.4274646994
46	4269	92	2116.9568047132
46	5258	93	2116.4861411033
46	5259	94	2116.0159922568
46	5385	95	2115.5452462845
46	5386	96	2113.7325765127
46	5508	97	2111.8112654528
46	5509	98	2109.0532204425
46	5510	99	2106.0940384893
46	5511	100	2103.8621053891
46	5512	101	2102.2979643298
46	5513	102	2101.3140429463
46	5514	103	2100.7647159249
46	5515	104	2100.5158801815
46	5516	105	2100.3749172334
46	5518	106	2100.3683059681
46	5519	107	2100.3683059681
46	5520	108	2100.3683059681
46	5521	109	2100.3683059681
46	5522	110	2100.3683059681
46	5523	111	2100.3683059681
46	5524	112	2100.3683059681
46	5525	113	2100.3683059681
46	5526	114	2100.3683059681
46	5527	115	2100.3683059681
46	5528	116	2100.3683059681
46	5529	117	2100.3683059681
46	5530	118	2100.3683059681
46	5531	119	2100.3683059681
46	5532	120	2100.3683059681
46	5533	121	2100.3683059681
46	5534	122	2100.3683059681
46	5535	123	2100.3683059681
46	5536	124	2100.3683059681
46	5537	125	2100.3683059681
46	5539	126	2100.3683059681
46	5540	127	2100.3615807397
46	5541	128	2100.2246348942
46	5542	129	2100.085012828
46	5729	130	2099.9452018887
46	5730	131	2099.8050173176
46	7557	132	2099.6646924522
46	7558	133	2099.5021719895
46	7746	134	2099.1228899052
46	7747	135	2098.4946187362
46	7936	136	2097.3633603184
46	7937	137	2095.7889344953
46	7938	138	2094.0482557416
46	7939	139	2092.0929375812
46	7940	140	2090.0994363036
46	7941	141	2087.9047242608
46	7942	142	2085.8053983077
46	7943	143	2083.4538125703
46	7944	144	2081.327180543
46	7945	145	2078.8359149443
46	7946	146	2076.7579600578
46	7947	147	2072.9538405472
46	7948	148	2066.8671705239
46	7949	149	2059.2454611175
46	7950	150	2050.2650158377
46	7951	151	2040.2038876293
46	7952	152	2030.0403366378
46	7953	153	2019.8505597934
46	7954	154	2009.6948004821
46	7955	155	1999.5315674823
46	7957	156	1989.3577017291
46	7958	157	1979.1870475709
46	7959	158	1969.4326674845
46	7960	159	1959.7239707569
46	7961	160	1950.0147077767
46	7962	161	1940.2994020246
46	7963	162	1930.5924388552
46	7964	163	1920.8785189437
46	7965	164	1911.1662509535
46	7966	165	1901.4474713132
46	7968	166	1891.7316842405
46	7969	167	1882.0268621631
46	7970	168	1872.306782214
46	7971	169	1862.37324268
46	7972	170	1852.4060621569
46	7973	171	1842.445852573
46	7974	172	1832.4773660228
46	7975	173	1822.497488034
46	7976	174	1812.5187990712
46	7977	175	1802.5395375732
46	7978	176	1792.55319288
46	7979	177	1782.576857564
46	7980	178	1772.590736839
46	7981	179	1762.8016737634
46	7982	180	1753.1980223199
46	7983	181	1743.5996079324
46	7984	182	1733.8782698261
46	7985	183	1724.1100411518
46	7986	184	1714.3629048932
46	7987	185	1704.628466499
46	7989	186	1694.8706555702
46	7990	187	1685.1153564658
46	7991	188	1675.3588198163
46	7992	189	1665.6144446963
46	7993	190	1655.8663292425
46	7994	191	1646.1002435377
46	7995	192	1636.3454205217
46	7996	193	1626.5932027558
46	7997	194	1616.8285104213
46	7998	195	1607.0719800638
46	8000	196	1597.3336133845
46	8001	197	1587.5813445356
46	8002	198	1577.8126249835
46	8003	199	1568.0606581336
46	8004	200	1558.2973561324
45	29	28	2414.8387287854
45	30	29	2414.8387287854
45	31	30	2411.7503977651
45	32	31	2406.9754091416
45	33	32	2401.8753644078
45	34	33	2395.4934844975
45	35	34	2387.8762943314
45	36	35	2379.0419022342
45	37	36	2369.3419790111
45	38	37	2359.6355289492
45	39	38	2349.9212032534
45	40	39	2340.5628082656
45	41	40	2334.465267002
45	42	41	2338.0647009534
45	43	42	2348.6530792566
45	44	43	2358.9176140998
45	45	44	2371.8809477445
45	46	45	2384.8846471948
45	47	46	2396.1797201078
45	48	47	2405.0412241777
45	49	48	2412.8531461995
45	50	49	2419.1412172525
45	51	50	2423.1282091528
45	52	51	2428.3117442011
45	53	52	2431.1873857466
45	54	53	2432.5734357862
45	55	54	2434.2567018807
45	56	55	2436.2367366786
45	57	56	2438.1671750253
45	58	57	2439.0675805615
45	59	58	2440.0469834617
45	60	59	2441.0572698959
45	61	60	2442.0689332474
45	62	61	2443.0802095452
45	63	62	2444.0931173948
45	64	63	2445.1012982862
45	65	64	2446.1113663492
45	66	65	2447.1231647814
45	67	66	2448.1344548143
45	68	67	2449.145367549
45	69	68	2450.1566684392
45	70	69	2450.0994799006
45	71	70	2448.9856324941
45	72	71	2447.8725480314
45	73	72	2446.7601592259
45	74	73	2445.6456028984
45	75	74	2444.5334233128
45	76	75	2443.4206669133
45	78	76	2442.3069848935
45	79	77	2441.193676865
45	80	78	2440.1459298433
45	81	79	2439.206466924
45	82	80	2438.5993521463
45	83	81	2436.1994622689
45	84	82	2427.9942116053
45	85	83	2415.6925457548
45	86	84	2401.9525696691
45	87	85	2388.0100685152
45	88	86	2374.087428232
45	207	87	2360.1612266978
45	208	88	2346.2061729017
45	1961	89	2332.2699366264
45	1962	90	2318.3378420154
45	4268	91	2304.4063451559
45	4269	92	2290.4715399056
45	5258	93	2276.5366273695
45	5259	94	2262.6169554003
45	5385	95	2248.6796043477
45	5386	96	2234.8764798633
45	5508	97	2221.3277750708
45	5509	98	2210.1129744704
45	5510	99	2201.3877733919
45	5511	100	2194.806878604
45	5512	101	2190.1949806286
45	5513	102	2187.2938707783
45	5514	103	2185.6741701978
45	5515	104	2184.9404735443
45	5516	105	2184.5248417627
45	5518	106	2184.5053483292
45	5519	107	2184.5053483292
45	5520	108	2184.5053483292
45	5521	109	2184.5053483292
45	5522	110	2184.5053483292
45	5523	111	2184.5053483292
45	5524	112	2184.5053483292
45	5525	113	2184.5053483292
45	5526	114	2184.5053483292
45	5527	115	2184.5053483292
45	5528	116	2184.5053483292
45	5529	117	2184.5053483292
45	5530	118	2184.5053483292
45	5531	119	2184.5053483292
45	5532	120	2184.5053483292
45	5533	121	2184.5053483292
45	5534	122	2184.5053483292
45	5535	123	2184.5053483292
45	5536	124	2184.5053483292
45	5537	125	2184.5053483292
45	5539	126	2184.5053483292
45	5540	127	2184.4855188732
45	5541	128	2184.0817315918
45	5542	129	2183.6700534234
45	5729	130	2183.2578183612
45	5730	131	2182.8444816383
45	7557	132	2182.4307312559
45	7558	133	2181.9515367534
45	7746	134	2180.8332167241
45	7747	135	2178.9807479104
45	7936	136	2176.7408489988
45	7937	137	2174.0663661512
45	7938	138	2171.1094688498
45	7939	139	2167.7879628105
45	7940	140	2164.4015949717
45	7941	141	2160.6734296787
45	7942	142	2157.1072970802
45	7943	143	2153.1126498727
45	7944	144	2149.5001323485
45	7945	145	2145.2682104547
45	7946	146	2141.7383809647
45	7947	147	2136.822919306
45	7948	148	2131.1211266585
45	7949	149	2123.9813595135
45	7950	150	2115.5687732109
45	7951	151	2106.1438386211
45	7952	152	2096.6229577293
45	7953	153	2087.0775093207
45	7954	154	2077.5639274194
45	7955	155	2068.0433444126
45	7957	156	2058.5128009913
45	7958	157	2048.9852660875
45	7959	158	2039.0407414375
45	7960	159	2029.0533867473
45	7961	160	2019.0654495528
45	7962	161	2009.0712961471
45	7963	162	1999.0857247716
45	7964	163	1989.0929969823
45	7965	164	1979.1019685281
45	7966	165	1969.1042415265
45	7968	166	1959.1095929857
45	7969	167	1949.1262241561
45	7970	168	1939.1271595239
45	7971	169	1929.3591035519
45	7972	170	1919.6325599318
45	7973	171	1909.912818952
45	7974	172	1900.1850008359
45	7975	173	1890.4460663042
45	7976	174	1880.7082920918
45	7977	175	1870.9699591667
45	7978	176	1861.2247140562
45	7979	177	1851.4892366661
45	7980	178	1841.7442101162
45	7981	179	1831.8410031263
45	7982	180	1821.7291830094
45	7983	181	1811.6228770635
45	7984	182	1801.6275145856
45	7985	183	1791.6600616932
45	7986	184	1781.7141314001
45	7987	185	1771.7811579449
45	7989	186	1761.8243352699
45	7990	187	1751.8700756478
45	7991	188	1741.9145532409
45	7992	189	1731.9714403993
45	7993	190	1722.0245109395
45	7994	191	1712.0592447239
45	7995	192	1702.1054708997
45	7996	193	1692.1543554611
45	7997	194	1682.1905110327
45	7998	195	1672.2349950463
45	8000	196	1662.2980131882
45	8001	197	1652.3468456247
45	8002	198	1642.3788918438
45	8003	199	1632.4280324373
45	8004	200	1622.4656066992

