version 2
run Lamda_1-0-20200717-14:33:51-11777
attr configname Lamda_1
attr datetime 20200717-14:33:51
attr experiment Lamda_1
attr inifile omnetpp.ini
attr iterationvars ""
attr iterationvarsf ""
attr measurement ""
attr network RSUExampleScenario
attr processid 11777
attr repetition 0
attr replication #0
attr resultdir results
attr runnumber 0
attr seedset 0
param *.manager.launchConfig "xmldoc(\"CAN2Mapd2.launchd.xml\")"
param *.node[*].appl.lambda 1
param *.manager.seed 0
param **.debug false
param **.coreDebug false
param *.playgroundSizeX 1000m
param *.playgroundSizeY 1000m
param *.playgroundSizeZ 50m
param *.annotations.draw true
param *.obstacles.debug false
param *.obstacles.obstacles "xmldoc(\"config.xml\", \"//AnalogueModel[@type='SimpleObstacleShadowing']/obstacles\")"
param *.manager.updateInterval 0.1s
param *.manager.host "\"localhost\""
param *.manager.port 9999
param *.manager.autoShutdown true
param *.rsu[0].mobility.x 325
param *.rsu[0].mobility.y 500
param *.rsu[0].mobility.z 0
param *.rsu[*].applType "\"TraCIDemoRSU11p\""
param *.rsu[*].appl.headerLength "80 bit"
param *.rsu[*].appl.sendBeacons true
param *.rsu[*].appl.dataOnSch true
param *.rsu[*].appl.beaconInterval 1s
param *.rsu[*].appl.beaconUserPriority 7
param *.rsu[*].appl.dataUserPriority 5
param *.connectionManager.sendDirect true
param *.connectionManager.maxInterfDist 120m
param *.connectionManager.drawMaxIntfDist true
param *.**.nic.mac1609_4.useServiceChannel true
param *.**.nic.mac1609_4.txPower 20mW
param *.**.nic.mac1609_4.bitrate 6Mbps
param *.**.nic.phy80211p.sensitivity -89dBm
param *.**.nic.phy80211p.useThermalNoise true
param *.**.nic.phy80211p.thermalNoise -110dBm
param *.**.nic.phy80211p.decider "xmldoc(\"config.xml\")"
param *.**.nic.phy80211p.analogueModels "xmldoc(\"config.xml\")"
param *.**.nic.phy80211p.usePropagationDelay true
param *.**.nic.phy80211p.antenna "xmldoc(\"antenna.xml\", \"/root/Antenna[@id='monopole']\")"
param *.node[*].applType "\"TraCIDemo11p\""
param *.node[*].appl.headerLength "80 bit"
param *.node[*].appl.sendBeacons true
param *.node[*].appl.dataOnSch true
param *.node[*].appl.beaconInterval 1s
param *.node[*].appl.maxt2cThresh 3.0
param *.node[*].appl.mint2cThresh 1.0
param *.node[*].appl.maximumAcceleration 5.0
param *.node[*].appl.emergentManeuverTime 3.0
param *.node[*].appl.singleClusterFormationPeriod 12.0
param *.node[*3].appl.tesVeh false
param *.node[*].veinsmobilityType.debug true
param *.node[*].veinsmobility.x 0
param *.node[*].veinsmobility.y 0
param *.node[*].veinsmobility.z 1.895

vector 0 RSUExampleScenario.node[0].veinsmobility posx ETV
vector 1 RSUExampleScenario.node[0].veinsmobility posy ETV
vector 2 RSUExampleScenario.node[0].veinsmobility speed ETV
vector 3 RSUExampleScenario.node[0].veinsmobility acceleration ETV
vector 4 RSUExampleScenario.node[0].veinsmobility co2emission ETV
vector 5 RSUExampleScenario.node[1].veinsmobility posx ETV
vector 6 RSUExampleScenario.node[1].veinsmobility posy ETV
vector 7 RSUExampleScenario.node[1].veinsmobility speed ETV
vector 8 RSUExampleScenario.node[1].veinsmobility acceleration ETV
vector 9 RSUExampleScenario.node[1].veinsmobility co2emission ETV
vector 10 RSUExampleScenario.node[2].veinsmobility posx ETV
vector 11 RSUExampleScenario.node[2].veinsmobility posy ETV
vector 12 RSUExampleScenario.node[2].veinsmobility speed ETV
vector 13 RSUExampleScenario.node[2].veinsmobility acceleration ETV
vector 14 RSUExampleScenario.node[2].veinsmobility co2emission ETV
vector 15 RSUExampleScenario.node[3].veinsmobility posx ETV
vector 16 RSUExampleScenario.node[3].veinsmobility posy ETV
vector 17 RSUExampleScenario.node[3].veinsmobility speed ETV
vector 18 RSUExampleScenario.node[3].veinsmobility acceleration ETV
vector 19 RSUExampleScenario.node[3].veinsmobility co2emission ETV
vector 20 RSUExampleScenario.node[4].veinsmobility posx ETV
vector 21 RSUExampleScenario.node[4].veinsmobility posy ETV
vector 22 RSUExampleScenario.node[4].veinsmobility speed ETV
vector 23 RSUExampleScenario.node[4].veinsmobility acceleration ETV
vector 24 RSUExampleScenario.node[4].veinsmobility co2emission ETV
vector 25 RSUExampleScenario.node[5].veinsmobility posx ETV
vector 26 RSUExampleScenario.node[5].veinsmobility posy ETV
vector 27 RSUExampleScenario.node[5].veinsmobility speed ETV
vector 28 RSUExampleScenario.node[5].veinsmobility acceleration ETV
vector 29 RSUExampleScenario.node[5].veinsmobility co2emission ETV
vector 30 RSUExampleScenario.node[6].veinsmobility posx ETV
vector 31 RSUExampleScenario.node[6].veinsmobility posy ETV
vector 32 RSUExampleScenario.node[6].veinsmobility speed ETV
vector 33 RSUExampleScenario.node[6].veinsmobility acceleration ETV
vector 34 RSUExampleScenario.node[6].veinsmobility co2emission ETV
vector 35 RSUExampleScenario.node[7].veinsmobility posx ETV
vector 36 RSUExampleScenario.node[7].veinsmobility posy ETV
vector 37 RSUExampleScenario.node[7].veinsmobility speed ETV
vector 38 RSUExampleScenario.node[7].veinsmobility acceleration ETV
vector 39 RSUExampleScenario.node[7].veinsmobility co2emission ETV
4	12	0.3	2.2420559101067
4	17	0.4	2.6945680782324
4	22	0.5	3.0435430686703
4	27	0.6	3.5558119895565
4	41	0.7	3.6648968244183
4	46	0.8	4.3078389920243
4	51	0.9	4.1424682738883
4	74	1	5.1395834398293
4	79	1.1	5.002122431678
4	84	1.2	5.146353587138
4	107	1.3	6.1638293588069
4	112	1.4	6.3949938485477
4	117	1.5	7.3051722849768
4	140	1.6	5.4467860409437
4	145	1.7	9.0777369147956
4	150	1.8	5.6951606816073
4	173	1.9	8.991510178157
4	178	2	8.9297976590767
4	183	2.1	8.8716312936301
4	206	2.2	7.5996642338313
4	211	2.3	7.7302338567401
4	216	2.4	9.5478101391154
4	239	2.5	10.186970509758
4	244	2.6	10.026633200848
4	249	2.7	11.469784990365
4	272	2.8	8.4230130895095
4	277	2.9	9.2090885133297
4	282	3	14.720806539213
4	305	3.1	13.384443222847
4	310	3.2	15.71937808708
4	315	3.3	11.95742817679
4	338	3.4	17.273938943199
4	343	3.5	15.016240277337
4	348	3.6	11.536322481443
4	371	3.7	5.1364351223646
4	376	3.8	3.4870607527906
4	381	3.9	7.3530459869003
4	404	4	0.973
4	409	4.1	2.0060520632017
4	414	4.2	1.1110345906151
4	437	4.3	6.2099417174784
4	442	4.4	0.973
4	447	4.5	1.9939411204769
4	470	4.6	4.8359976653095
4	475	4.7	1.5259820039334
4	480	4.8	0.973
4	503	4.9	2.8523619806939
4	508	5	6.7105645999339
4	513	5.1	0.973
4	543	5.2	2.68060512812
4	550	5.3	6.1728960213525
4	572	5.4	0.973
4	603	5.5	5.5231982804706
4	610	5.6	2.9090846185805
4	632	5.7	3.2730367577864
4	663	5.8	0.973
4	670	5.9	4.6590868362797
4	692	6	1.0835099923204
4	723	6.1	6.6297291653155
4	730	6.2	0.973
4	752	6.3	2.0590282291727
4	783	6.4	1.9729532743086
4	790	6.5	0.973
4	812	6.6	4.1780719617531
4	843	6.7	4.7013455840995
4	850	6.8	1.3734141586915
4	872	6.9	0.973
4	903	7	7.359430254562
4	910	7.1	0.973
4	932	7.2	1.9796440368384
4	963	7.3	5.8632258431516
4	970	7.4	2.7059477643637
4	992	7.5	0.973
4	1023	7.6	1.6176990009836
4	1030	7.7	0.973
4	1052	7.8	3.1108995122825
4	1083	7.9	0.973
4	1090	8	9.4351969916291
4	1112	8.1	1.1319960719417
4	1143	8.2	2.4217400411488
4	1150	8.3	0.973
4	1172	8.4	5.3553117964331
4	1203	8.5	0.973
4	1210	8.6	3.8724889808871
4	1232	8.7	2.7382177742307
4	1263	8.8	2.4319832099821
4	1270	8.9	0.973
4	1292	9	6.3536828012322
4	1323	9.1	1.5362862404753
4	1330	9.2	0.973
4	1352	9.3	0.973
4	1383	9.4	8.077988500807
4	1390	9.5	0.973
4	1412	9.6	8.2282282663278
4	1443	9.7	0.973
4	1450	9.8	6.2336785237542
4	1472	9.9	0.973
4	1503	10	5.0941437279791
4	1510	10.1	0.973
4	1539	10.2	7.8864610894851
4	1578	10.3	0.973
4	1587	10.4	7.7143237934537
4	1617	10.5	0.973
4	1656	10.6	4.2990245017399
4	1665	10.7	3.6701940522357
4	1710	10.8	0.973
4	1743	10.9	2.4939805997891
4	1752	11	5.4961291401237
4	1797	11.1	2.1170636257149
4	1830	11.2	0.973
4	1839	11.3	0.973
4	1884	11.4	3.0522720695849
4	1917	11.5	5.7859157274528
4	1926	11.6	0.973
4	1971	11.7	5.5445303300511
4	2004	11.8	3.3704092968551
4	2013	11.9	0.973
4	2058	12	0.973
4	2091	12.1	4.5263332552898
4	2100	12.2	0.973
4	2145	12.3	0.973
4	2178	12.4	7.6361979613141
4	2187	12.5	0.973
4	2232	12.6	0.973
4	2265	12.7	8.1281950906378
4	2274	12.8	0.973
4	2319	12.9	3.1561959179796
4	2352	13	2.7942939878672
4	2361	13.1	0.973
4	2406	13.2	3.9953620101051
4	2439	13.3	3.6080605866366
4	2448	13.4	1.095301026288
4	2493	13.5	2.2215186526288
4	2526	13.6	7.0480374320882
4	2535	13.7	0.973
4	2580	13.8	5.5702739481064
4	2613	13.9	0.973
4	2622	14	7.1522132510513
4	2667	14.1	2.3866355073169
4	2700	14.2	0.973
4	2709	14.3	6.6917626911045
4	2754	14.4	0.973
4	2787	14.5	5.6168352323648
4	2796	14.6	0.973
4	2841	14.7	0.973
4	2874	14.8	3.4761094112889
4	2883	14.9	4.9935120277544
4	2928	15	0.973
4	2961	15.1	5.7555123596172
4	2971	15.2	4.6958863129035
4	3030	15.3	1.9155757536984
4	3065	15.4	2.3486384058076
4	3076	15.5	0.973
4	3144	15.6	5.3448039763844
4	3179	15.7	0.973
4	3190	15.8	1.8068165845653
4	3258	15.9	0.973
4	3293	16	10.098278132383
4	3304	16.1	0.973
4	3372	16.2	3.7489753523158
4	3407	16.3	4.7025101294155
4	3418	16.4	0.973
4	3486	16.5	5.7513347095181
4	3521	16.6	0.973
4	3532	16.7	6.5310793599492
4	3600	16.8	0.973
4	3635	16.9	0.973
4	3646	17	5.3209299405192
4	3714	17.1	0.973
4	3749	17.2	4.7782147309204
4	3760	17.3	3.793636489256
4	3828	17.4	0.973
4	3863	17.5	6.2943255152834
4	3874	17.6	3.4442350525631
4	3942	17.7	0.973
4	3977	17.8	1.4704404720141
4	3988	17.9	4.9835891973307
4	4056	18	0.973
4	4091	18.1	3.1995309747875
4	4102	18.2	0.973
4	4170	18.3	4.7199043211531
4	4205	18.4	7.4062739609501
4	4216	18.5	0.973
4	4284	18.6	0.973
4	4319	18.7	1.6760156793414
4	4330	18.8	4.9837624724043
4	4398	18.9	2.7576485471534
4	4433	19	0.973
4	4444	19.1	0.973
4	4512	19.2	7.8029545414678
4	4547	19.3	0.973
4	4558	19.4	4.6159424379158
4	4626	19.5	0.973
4	4661	19.6	2.826056209066
4	4672	19.7	0.973
4	4740	19.8	4.8901822847761
4	4775	19.9	0.973
4	4786	20	3.2696802726552
4	4854	20.1	5.5379720215905
4	4890	20.2	0.973
4	4903	20.3	0.973
4	4985	20.4	7.5754191920366
4	5022	20.5	2.3438413442532
4	5035	20.6	0.973
4	5111	20.7	0.973
4	5148	20.8	0.973
4	5176	20.9	7.0618486789563
4	5252	21	0.973
4	5289	21.1	8.3553207068276
4	5317	21.2	0.973
4	5393	21.3	5.8612431216042
4	5430	21.4	3.6301635101277
4	5458	21.5	0.973
4	5534	21.6	7.2466852747478
4	5571	21.7	0.973
4	5599	21.8	5.222063485949
4	5675	21.9	2.6103522100479
4	5712	22	2.6362020774699
4	5740	22.1	0.973
4	5816	22.2	0.973
4	5853	22.3	6.2344632164549
4	5881	22.4	3.4176836320434
4	5957	22.5	0.973
4	5994	22.6	3.5146386466102
4	6022	22.7	6.3571581947508
4	6098	22.8	2.0662205612414
4	6135	22.9	0.973
4	6163	23	6.6827793276366
4	6239	23.1	0.973
4	6276	23.2	2.1859903223062
4	6304	23.3	0.973
4	6380	23.4	7.6292170090183
4	6417	23.5	0.973
4	6445	23.6	0.973
4	6521	23.7	7.944950940052
4	6558	23.8	0.973
4	6586	23.9	0.973
4	6662	24	9.1203630465666
4	6699	24.1	0.973
4	6727	24.2	0.973
4	6803	24.3	2.753606600333
4	6840	24.4	0.973
4	6868	24.5	4.9818822082826
4	6944	24.6	3.1803257826216
4	6981	24.7	2.8194850324088
4	7009	24.8	0.973
4	7085	24.9	5.079108026752
4	7122	25	0.973
4	7150	25.1	7.6576634820027
4	7233	25.2	0.973
4	7272	25.3	0.973
4	7308	25.4	2.0246489434
4	7392	25.5	0.973
4	7431	25.6	7.5473629494239
4	7467	25.7	2.835973157713
4	7545	25.8	0.973
4	7599	25.9	6.1275513792581
4	7635	26	3.44402918144
4	7713	26.1	2.7418376834608
4	7767	26.2	0.973
4	7803	26.3	0.973
4	7881	26.4	3.5607028110912
4	7935	26.5	3.7549872833548
4	7971	26.6	3.7793120850317
4	8049	26.7	0.973
4	8103	26.8	8.799026544007
4	8139	26.9	0.973
4	8217	27	7.8616539649643
4	8271	27.1	2.3753622451545
4	8307	27.2	0.973
4	8385	27.3	0.973
4	8439	27.4	0.973
4	8475	27.5	6.9934410290258
4	8553	27.6	0.973
4	8607	27.7	7.7599911957303
4	8643	27.8	3.6195439583277
4	8721	27.9	0.973
4	8775	28	0.973
4	8811	28.1	6.2400813111664
4	8889	28.2	3.714434436045
4	8943	28.3	0.973
4	8979	28.4	1.1536344889782
4	9057	28.5	2.0244618678297
4	9111	28.6	1.775821785427
4	9147	28.7	9.5302049992041
4	9225	28.8	0.973
4	9279	28.9	2.3073472277429
4	9315	29	0.973
4	9393	29.1	0.973
4	9447	29.2	7.231284096843
4	9483	29.3	2.2160779390347
4	9561	29.4	0.973
4	9615	29.5	2.3492170552298
4	9651	29.6	4.4105758655821
4	9729	29.7	1.5583888882882
4	9783	29.8	0.973
4	9819	29.9	5.9917001735818
4	9897	30	0.973
4	9952	30.1	9.1341534095736
4	10016	30.2	0.973
4	10136	30.3	0.973
4	10198	30.4	0.973
4	10243	30.5	6.3967162723364
4	10404	30.6	0.973
4	10466	30.7	1.813046655922
4	10505	30.8	4.2901929925865
4	10666	30.9	7.6141258500045
4	10728	31	0.973
4	10782	31.1	0.973
4	10943	31.2	3.7355194456653
4	11005	31.3	1.9891636787322
4	11059	31.4	0.973
4	11220	31.5	8.7717263883518
4	11282	31.6	0.973
4	11336	31.7	4.9479860895943
4	11497	31.8	1.4890805251133
4	11559	31.9	0.973
4	11613	32	9.1370873930739
4	11774	32.1	0.973
4	11836	32.2	0.973
4	11890	32.3	10.341944989908
4	12051	32.4	0.973
4	12113	32.5	4.3224774016867
4	12167	32.6	2.3128935640515
4	12328	32.7	0.973
4	12390	32.8	2.0282027596578
4	12450	32.9	0.973
4	12629	33	3.4240079803787
4	12718	33.1	7.8724941222299
4	12805	33.2	2.4524131038791
4	13058	33.3	0.973
4	13147	33.4	8.4125611725476
4	13234	33.5	2.4832541622325
4	13480	33.6	0.973
4	13569	33.7	0.973
4	13656	33.8	4.6465911011644
4	13902	33.9	0.973
4	13991	34	5.6676825067661
4	14078	34.1	5.5208191354832
4	14331	34.2	0.973
4	14420	34.3	2.0197024429638
4	14507	34.4	0.973
4	14760	34.5	1.5378451988474
4	14849	34.6	4.2361259816837
4	14936	34.7	0.973
4	15189	34.8	0.973
4	15278	34.9	2.1859118136042
4	15365	35	4.3286000729135
4	15588	35.1	2.4275157554761
4	15684	35.2	1.869510243053
4	15800	35.3	3.289396108072
4	16025	35.4	3.330138127988
4	16122	35.5	0.973
4	16232	35.6	4.8468149959427
4	16457	35.7	0.973
4	16548	35.8	4.9994356137412
4	16658	35.9	0.973
4	16883	36	5.3004555483256
4	16974	36.1	2.7513233630729
4	17084	36.2	3.9564785571361
3	12	0.3	4.7076447059336
3	17	0.4	4.4789687658793
3	22	0.5	4.1958617805312
3	27	0.6	4.2994300789104
3	41	0.7	3.8184071803533
3	46	0.8	4.1455384720677
3	51	0.9	3.4957618313187
3	74	1	4.1737797422545
3	79	1.1	3.6537824375064
3	84	1.2	3.4875752566503
3	107	1.3	4.0390457294416
3	112	1.4	3.906031975057
3	117	1.5	4.2561634868616
3	140	1.6	2.7705674956087
3	145	1.7	4.8582175606862
3	150	1.8	2.5908430898562
3	173	1.9	4.318359263707
3	178	2	4.0413961966988
3	183	2.1	3.8058372208616
3	206	2.2	3.0206874164287
3	211	2.3	2.9695781838382
3	216	2.4	3.6777626961702
3	239	2.5	3.8000570714939
3	244	2.6	3.5798885906115
3	249	2.7	4.0180380170932
3	272	2.8	2.6860084169311
3	277	2.9	2.9098030779278
3	282	3	4.8224098532228
3	305	3.1	4.1565095959231
3	310	3.2	4.7821767575806
3	315	3.3	3.3795703086071
3	338	3.4	4.9494540021988
3	343	3.5	4.0793961565942
3	348	3.6	2.9184503928991
3	371	3.7	0.95131268207327
3	376	3.8	0.44749599357601
3	381	3.9	1.5945149486652
3	404	4	-1.824153419584
3	409	4.1	-0.00018776452634484
3	414	4.2	-0.27132772956975
3	437	4.3	1.2625257571926
3	442	4.4	-0.8138763095485
3	447	4.5	-0.0043804716551676
3	470	4.6	0.84857847425155
3	475	4.7	-0.14749529422261
3	480	4.8	-0.65012923791073
3	503	4.9	0.25412410497665
3	508	5	1.4015127747552
3	513	5.1	-1.5058955695713
3	543	5.2	0.20177908649202
3	550	5.3	1.2414193287259
3	572	5.4	-2.0032890827861
3	603	5.5	1.0570514760911
3	610	5.6	0.26796596765053
3	632	5.7	0.37526582425926
3	663	5.8	-1.2741951877251
3	670	5.9	0.79520837636665
3	692	6	-0.28070903092157
3	723	6.1	1.3741103757638
3	730	6.2	-1.4971142570721
3	752	6.3	0.013849445967935
3	783	6.4	-0.012095690472052
3	790	6.5	-0.817035191576
3	812	6.6	0.65481944358908
3	843	6.7	0.80578098946717
3	850	6.8	-0.19381012651138
3	872	6.9	-0.65149810689036
3	903	7	1.5935143223032
3	910	7.1	-1.516353111947
3	932	7.2	-0.0096779060550034
3	963	7.3	1.1506382800872
3	970	7.4	0.20364065829199
3	992	7.5	-0.46625512826722
3	1023	7.6	-0.12070605938789
3	1030	7.7	-0.5162150063552
3	1052	7.8	0.32898815639783
3	1083	7.9	-1.3744307961315
3	1090	8	2.2158225625753
3	1112	8.1	-0.26707987941336
3	1143	8.2	0.11891811853275
3	1150	8.3	-1.2294970272342
3	1172	8.4	0.99954180186614
3	1203	8.5	-0.53254792874213
3	1210	8.6	0.55471296189353
3	1232	8.7	0.21364000393078
3	1263	8.8	0.12148611829616
3	1270	8.9	-1.3648861320689
3	1292	9	1.2953666062094
3	1323	9.1	-0.14599851798266
3	1330	9.2	-0.4303570225602
3	1352	9.3	-1.1306701629655
3	1383	9.4	1.8097298993962
3	1390	9.5	-1.8521090887953
3	1412	9.6	1.8546162638813
3	1443	9.7	-2.2009026602609
3	1450	9.8	1.2695206672652
3	1472	9.9	-1.2702747312142
3	1503	10	0.92978893197142
3	1510	10.1	-0.33604515832849
3	1539	10.2	1.7501894809539
3	1578	10.3	-2.3509973537875
3	1587	10.4	1.70861632796
3	1617	10.5	-0.98130246740766
3	1656	10.6	0.68599549471401
3	1665	10.7	0.49360213801265
3	1710	10.8	-0.87444828823209
3	1743	10.9	0.14408121875022
3	1752	11	1.0375711374218
3	1797	11.1	0.027070048381574
3	1830	11.2	-0.58864117076155
3	1839	11.3	-1.3094328105217
3	1884	11.4	0.31503720325418
3	1917	11.5	1.1289925838355
3	1926	11.6	-0.80445692175999
3	1971	11.7	1.0539311810862
3	2004	11.8	0.40061244624667
3	2013	11.9	-1.4123073057272
3	2058	12	-0.41393904015422
3	2091	12.1	0.7547648914624
3	2100	12.2	-0.35717318009119
3	2145	12.3	-0.79970263352152
3	2178	12.4	1.6823918966111
3	2187	12.5	-1.1424348555738
3	2232	12.6	-0.41588273306843
3	2265	12.7	1.8255168903852
3	2274	12.8	-1.7439897742588
3	2319	12.9	0.34589685616083
3	2352	13	0.23541550326627
3	2361	13.1	-0.96035835682414
3	2406	13.2	0.60040484298952
3	2439	13.3	0.48012007435318
3	2448	13.4	-0.27695986209437
3	2493	13.5	0.062954088789411
3	2526	13.6	1.4990384009434
3	2535	13.7	-1.7422033322509
3	2580	13.8	1.0649923089659
3	2613	13.9	-1.1477305652807
3	2622	14	1.5342394186882
3	2667	14.1	0.10775045491755
3	2700	14.2	-1.2462471908657
3	2709	14.3	1.393119173008
3	2754	14.4	-1.5461954515195
3	2787	14.5	1.077101479168
3	2796	14.6	-0.36574797239155
3	2841	14.7	-1.5412009094143
3	2874	14.8	0.44462060905062
3	2883	14.9	0.89566954527982
3	2928	15	-1.1788910982432
3	2961	15.1	1.1255836032797
3	2971	15.2	0.79950216750149
3	3030	15.3	-0.032611566712148
3	3065	15.4	0.096682372386567
3	3076	15.5	-1.7087474447908
3	3144	15.6	1.0003391565988
3	3179	15.7	-0.7256136869546
3	3190	15.8	-0.061567081720568
3	3258	15.9	-0.63366476737428
3	3293	16	2.40951857646
3	3304	16.1	-1.795691200532
3	3372	16.2	0.52238489675801
3	3407	16.3	0.80260019400157
3	3418	16.4	-1.4842529426096
3	3486	16.5	1.1208650597837
3	3521	16.6	-0.89765680197161
3	3532	16.7	1.3493006071076
3	3600	16.8	-1.031336071901
3	3635	16.9	-0.89246354124043
3	3646	17	0.99645301117562
3	3714	17.1	-0.48622307251208
3	3749	17.2	0.82975239725783
3	3760	17.3	0.53007015492767
3	3828	17.4	-1.3833944778889
3	3863	17.5	1.2803404184524
3	3874	17.6	0.42346366681159
3	3942	17.7	-0.63441678590607
3	3977	17.8	-0.16488990106154
3	3988	17.9	0.88268277118914
3	4056	18	-1.6367851174437
3	4091	18.1	0.35703391768038
3	4102	18.2	-1.134399343282
3	4170	18.3	0.81815185607411
3	4205	18.4	1.6060679970542
3	4216	18.5	-0.74841535009909
3	4284	18.6	-0.67074993159622
3	4319	18.7	-0.10166182881221
3	4330	18.8	0.88859953917563
3	4398	18.9	0.21976522519253
3	4433	19	-1.2546308239689
3	4444	19.1	-0.64970580453519
3	4512	19.2	1.7335723730503
3	4547	19.3	-0.66064766491763
3	4558	19.4	0.77682658156846
3	4626	19.5	-0.4167497495655
3	4661	19.6	0.24135317537002
3	4672	19.7	-1.465567232226
3	4740	19.8	0.86619122535922
3	4775	19.9	-0.4987014218932
3	4786	20	0.37859593052417
3	4854	20.1	1.0514338628855
3	4890	20.2	-0.52691243123263
3	4903	20.3	-0.97845375654288
3	4985	20.4	1.6589295072481
3	5022	20.5	0.094519496778958
3	5035	20.6	-0.48803535290062
3	5111	20.7	-0.78705115010962
3	5148	20.8	-0.57375918258913
3	5176	20.9	1.5088042616844
3	5252	21	-1.9896598241758
3	5289	21.1	1.8977307179011
3	5317	21.2	-1.8272899341537
3	5393	21.3	1.1578981584171
3	5430	21.4	0.48284818592947
3	5458	21.5	-1.2007643270772
3	5534	21.6	1.5629628871102
3	5571	21.7	-1.5135718614329
3	5599	21.8	0.96246250381228
3	5675	21.9	0.17685695318505
3	5712	22	0.18381199450232
3	5740	22.1	-0.86223433143459
3	5816	22.2	-0.8433618536219
3	5853	22.3	1.2676414527232
3	5881	22.4	0.4181619384326
3	5957	22.5	-1.8015913240379
3	5994	22.6	0.45572480594274
3	6022	22.7	1.2998950725887
3	6098	22.8	0.013138767681085
3	6135	22.9	-1.4605875738198
3	6163	23	1.3981858466286
3	6239	23.1	-0.51537325081881
3	6276	23.2	0.05084159958642
3	6304	23.3	-0.99123589869123
3	6380	23.4	1.6787099017529
3	6417	23.5	-1.1972222471377
3	6445	23.6	-0.29341924062464
3	6521	23.7	1.768871351378
3	6558	23.8	-0.75248445675243
3	6586	23.9	-1.385776574607
3	6662	24	2.1205174649367
3	6699	24.1	-1.0286340443417
3	6727	24.2	-0.39290044864174
3	6803	24.3	0.22285203682259
3	6840	24.4	-0.31240771408193
3	6868	24.5	0.88926936383359
3	6944	24.6	0.34638468408957
3	6981	24.7	0.23717680713162
3	7009	24.8	-0.91585946618579
3	7085	24.9	0.91286125418264
3	7122	25	-1.5154065028764
3	7150	25.1	1.6813826729776
3	7233	25.2	-0.33367458905559
3	7272	25.3	-0.74400000623427
3	7308	25.4	0.0022884272038937
3	7392	25.5	-0.90885916433763
3	7431	25.6	1.6533816396259
3	7467	25.7	0.24175378668588
3	7545	25.8	-1.9658133911435
3	7599	25.9	1.2341736402595
3	7635	26	0.42534131265711
3	7713	26.1	0.21404349594377
3	7767	26.2	-0.88636868225876
3	7803	26.3	-0.40075576922391
3	7881	26.4	0.46417246921919
3	7935	26.5	0.51908701774664
3	7971	26.6	0.52281172189396
3	8049	26.7	-2.4055499845417
3	8103	26.8	2.0282544835936
3	8139	26.9	-2.0661383779952
3	8217	27	1.7525281792041
3	8271	27.1	0.1058382994961
3	8307	27.2	-0.44506450940389
3	8385	27.3	-0.70621430117171
3	8439	27.4	-0.30520552070811
3	8475	27.5	1.4900748129003
3	8553	27.6	-1.8821610993473
3	8607	27.7	1.7223379114876
3	8643	27.8	0.47662526834756
3	8721	27.9	-1.4596552675357
3	8775	28	-0.47987987170927
3	8811	28.1	1.2685600778786
3	8889	28.2	0.50610770878848
3	8943	28.3	-1.6683400532929
3	8979	28.4	-0.25848620454781
3	9057	28.5	0.0059347727801651
3	9111	28.6	-0.069389693671837
3	9147	28.7	2.2427394782426
3	9225	28.8	-0.86654148006346
3	9279	28.9	0.086695782956667
3	9315	29	-0.41019209544174
3	9393	29.1	-0.87469064979814
3	9447	29.2	1.5627709671389
3	9483	29.3	0.058098273584619
3	9561	29.4	-0.31155350792687
3	9615	29.5	0.098818489350379
3	9651	29.6	0.71204294275958
3	9729	29.7	-0.13984398683533
3	9783	29.8	-1.4397164923139
3	9819	29.9	1.18897700042
3	9897	30	-1.685777704115
3	9952	30.1	2.1224987594178
3	10016	30.2	-0.85610953625292
3	10136	30.3	-0.32507617492229
3	10198	30.4	-0.29880379210226
3	10243	30.5	1.3070366712054
3	10404	30.6	-2.1236115787178
3	10466	30.7	-0.058053701650351
3	10505	30.8	0.68900019105058
3	10666	30.9	1.6684560506837
3	10728	31	-1.227130923653
3	10782	31.1	-0.76717960007954
3	10943	31.2	0.51999511895701
3	11005	31.3	-0.0071668141754344
3	11059	31.4	-0.75403291906696
3	11220	31.5	2.0180192985572
3	11282	31.6	-2.0901108870748
3	11336	31.7	0.88551492895931
3	11497	31.8	-0.1579519698862
3	11559	31.9	-0.62469118915033
3	11613	32	2.1247886301717
3	11774	32.1	-0.31618348904885
3	11836	32.2	-2.0260257943301
3	11890	32.3	2.4819315806963
3	12051	32.4	-1.6878976282896
3	12113	32.5	0.69282658339944
3	12167	32.6	0.088226145016961
3	12328	32.7	-0.56213172967546
3	12390	32.8	0.0043834367534146
3	12450	32.9	-0.98401182563975
3	12629	33	0.42894441459794
3	12718	33.1	1.7489198606927
3	12805	33.2	0.12712477706373
3	13058	33.3	-2.0211164088687
3	13147	33.4	1.9101960788248
3	13234	33.5	0.13623994076625
3	13480	33.6	-0.81956756184809
3	13569	33.7	-1.2960609892616
3	13656	33.8	0.79419413639698
3	13902	33.9	-0.78874832775909
3	13991	34	1.0988062527031
3	14078	34.1	1.0435207473347
3	14331	34.2	-0.90040420705918
3	14420	34.3	0.00036192417610437
3	14507	34.4	-0.53715080779511
3	14760	34.5	-0.14316651446279
3	14849	34.6	0.66689672647044
3	14936	34.7	-0.39135417726357
3	15189	34.8	-0.35410052922089
3	15278	34.9	0.052746348083019
3	15365	35	0.69468834786676
3	15588	35.1	0.12254602625035
3	15684	35.2	-0.044976881472394
3	15800	35.3	0.37954877479933
3	16025	35.4	0.38947894412559
3	16122	35.5	-1.769626683672
3	16232	35.6	0.85117834270932
3	16457	35.7	-0.79509360657539
3	16548	35.8	0.89613216521684
3	16658	35.9	-0.91678416414652
3	16883	36	0.98592653288506
3	16974	36.1	0.21892891032621
3	17084	36.2	0.57633479184005
2	7	0.2	0.48627966244239
2	12	0.3	0.95704413303575
2	17	0.4	1.4049410096237
2	22	0.5	1.8245271876768
2	27	0.6	2.2544701955678
2	41	0.7	2.6363109136032
2	46	0.8	3.0508647608099
2	51	0.9	3.4004409439418
2	74	1	3.8178189181673
2	79	1.1	4.1831971619179
2	84	1.2	4.5319546875829
2	107	1.3	4.9358592605271
2	112	1.4	5.3264624580328
2	117	1.5	5.7520788067189
2	140	1.6	6.0291355562798
2	145	1.7	6.5149573123484
2	150	1.8	6.774041621334
2	173	1.9	7.2058775477047
2	178	2	7.6100171673746
2	183	2.1	7.9906008894608
2	206	2.2	8.2926696311036
2	211	2.3	8.5896274494875
2	216	2.4	8.9574037191045
2	239	2.5	9.3374094262539
2	244	2.6	9.695398285315
2	249	2.7	10.097202087024
2	272	2.8	10.365802928717
2	277	2.9	10.65678323651
2	282	3	11.139024221833
2	305	3.1	11.554675181425
2	310	3.2	12.032892857183
2	315	3.3	12.370849888044
2	338	3.4	12.865795288263
2	343	3.5	13.273734903923
2	348	3.6	13.565579943213
2	371	3.7	13.66071121142
2	376	3.8	13.705460810778
2	381	3.9	13.864912305644
2	404	4	13.682496963686
2	409	4.1	13.682478187233
2	414	4.2	13.655345414276
2	437	4.3	13.781597989995
2	442	4.4	13.700210359041
2	447	4.5	13.699772311875
2	470	4.6	13.7846301593
2	475	4.7	13.769880629878
2	480	4.8	13.704867706087
2	503	4.9	13.730280116585
2	508	5	13.87043139406
2	513	5.1	13.719841837103
2	543	5.2	13.740019745752
2	550	5.3	13.864161678625
2	572	5.4	13.663832770346
2	603	5.5	13.769537917955
2	610	5.6	13.79633451472
2	632	5.7	13.833861097146
2	663	5.8	13.706441578374
2	670	5.9	13.78596241601
2	692	6	13.757891512918
2	723	6.1	13.895302550495
2	730	6.2	13.745591124787
2	752	6.3	13.746976069384
2	783	6.4	13.745766500337
2	790	6.5	13.664062981179
2	812	6.6	13.729544925538
2	843	6.7	13.810123024485
2	850	6.8	13.790742011834
2	872	6.9	13.725592201145
2	903	7	13.884943633375
2	910	7.1	13.733308322181
2	932	7.2	13.732340531575
2	963	7.3	13.847404359584
2	970	7.4	13.867768425413
2	992	7.5	13.821142912586
2	1023	7.6	13.809072306647
2	1030	7.7	13.757450806012
2	1052	7.8	13.790349621652
2	1083	7.9	13.652906542039
2	1090	8	13.874488798296
2	1112	8.1	13.847780810355
2	1143	8.2	13.859672622208
2	1150	8.3	13.736722919485
2	1172	8.4	13.836677099671
2	1203	8.5	13.783422306797
2	1210	8.6	13.838893602986
2	1232	8.7	13.860257603379
2	1263	8.8	13.872406215209
2	1270	8.9	13.735917602002
2	1292	9	13.865454262623
2	1323	9.1	13.850854410825
2	1330	9.2	13.807818708569
2	1352	9.3	13.694751692272
2	1383	9.4	13.875724682212
2	1390	9.5	13.690513773332
2	1412	9.6	13.87597539972
2	1443	9.7	13.655885133694
2	1450	9.8	13.782837200421
2	1472	9.9	13.655809727299
2	1503	10	13.748788620497
2	1510	10.1	13.715184104664
2	1539	10.2	13.890203052759
2	1578	10.3	13.65510331738
2	1587	10.4	13.825964950176
2	1617	10.5	13.727834703436
2	1656	10.6	13.796434252907
2	1665	10.7	13.845794466708
2	1710	10.8	13.758349637885
2	1743	10.9	13.77275775976
2	1752	11	13.876514873502
2	1797	11.1	13.87922187834
2	1830	11.2	13.820357761264
2	1839	11.3	13.689414480212
2	1884	11.4	13.720918200538
2	1917	11.5	13.833817458921
2	1926	11.6	13.753371766745
2	1971	11.7	13.858764884854
2	2004	11.8	13.898826129478
2	2013	11.9	13.757595398906
2	2058	12	13.71620149489
2	2091	12.1	13.791677984037
2	2100	12.2	13.755960666027
2	2145	12.3	13.675990402675
2	2178	12.4	13.844229592336
2	2187	12.5	13.729986106779
2	2232	12.6	13.688397833472
2	2265	12.7	13.870949522511
2	2274	12.8	13.696550545085
2	2319	12.9	13.731140230701
2	2352	13	13.754681781027
2	2361	13.1	13.658645945345
2	2406	13.2	13.718686429644
2	2439	13.3	13.766698437079
2	2448	13.4	13.73900245087
2	2493	13.5	13.745297859749
2	2526	13.6	13.895201699843
2	2535	13.7	13.720981366618
2	2580	13.8	13.827480597515
2	2613	13.9	13.712707540987
2	2622	14	13.866131482855
2	2667	14.1	13.876906528347
2	2700	14.2	13.752281809261
2	2709	14.3	13.891593726561
2	2754	14.4	13.736974181409
2	2787	14.5	13.844684329326
2	2796	14.6	13.808109532087
2	2841	14.7	13.653989441146
2	2874	14.8	13.698451502051
2	2883	14.9	13.788018456579
2	2928	15	13.670129346754
2	2961	15.1	13.782687707082
2	2971	15.2	13.862637923833
2	3030	15.3	13.859376767161
2	3065	15.4	13.8690450044
2	3076	15.5	13.698170259921
2	3144	15.6	13.798204175581
2	3179	15.7	13.725642806885
2	3190	15.8	13.719486098713
2	3258	15.9	13.656119621976
2	3293	16	13.897071479622
2	3304	16.1	13.717502359569
2	3372	16.2	13.769740849244
2	3407	16.3	13.850000868645
2	3418	16.4	13.701575574384
2	3486	16.5	13.813662080362
2	3521	16.6	13.723896400165
2	3532	16.7	13.858826460876
2	3600	16.8	13.755692853685
2	3635	16.9	13.666446499561
2	3646	17	13.766091800679
2	3714	17.1	13.717469493428
2	3749	17.2	13.800444733154
2	3760	17.3	13.853451748646
2	3828	17.4	13.715112300857
2	3863	17.5	13.843146342703
2	3874	17.6	13.885492709384
2	3942	17.7	13.822051030793
2	3977	17.8	13.805562040687
2	3988	17.9	13.893830317806
2	4056	18	13.730151806062
2	4091	18.1	13.76585519783
2	4102	18.2	13.652415263501
2	4170	18.3	13.734230449109
2	4205	18.4	13.894837248814
2	4216	18.5	13.819995713804
2	4284	18.6	13.752920720645
2	4319	18.7	13.742754537764
2	4330	18.8	13.831614491681
2	4398	18.9	13.8535910142
2	4433	19	13.728127931803
2	4444	19.1	13.66315735135
2	4512	19.2	13.836514588655
2	4547	19.3	13.770449822163
2	4558	19.4	13.84813248032
2	4626	19.5	13.806457505364
2	4661	19.6	13.830592822901
2	4672	19.7	13.684036099678
2	4740	19.8	13.770655222214
2	4775	19.9	13.720785080025
2	4786	20	13.758644673077
2	4854	20.1	13.863788059365
2	4890	20.2	13.811096816242
2	4903	20.3	13.713251440588
2	4985	20.4	13.879144391313
2	5022	20.5	13.888596340991
2	5035	20.6	13.839792805701
2	5111	20.7	13.76108769069
2	5148	20.8	13.703711772431
2	5176	20.9	13.854592198599
2	5252	21	13.655626216182
2	5289	21.1	13.845399287972
2	5317	21.2	13.662670294556
2	5393	21.3	13.778460110398
2	5430	21.4	13.826744928991
2	5458	21.5	13.706668496283
2	5534	21.6	13.862964784994
2	5571	21.7	13.711607598851
2	5599	21.8	13.807853849232
2	5675	21.9	13.825539544551
2	5712	22	13.843920744001
2	5740	22.1	13.757697310857
2	5816	22.2	13.673361125495
2	5853	22.3	13.800125270768
2	5881	22.4	13.841941464611
2	5957	22.5	13.661782332207
2	5994	22.6	13.707354812801
2	6022	22.7	13.83734432006
2	6098	22.8	13.838658196828
2	6135	22.9	13.692599439446
2	6163	23	13.832418024109
2	6239	23.1	13.780880699027
2	6276	23.2	13.785964858986
2	6304	23.3	13.686841269117
2	6380	23.4	13.854712259292
2	6417	23.5	13.734990034578
2	6445	23.6	13.705648110516
2	6521	23.7	13.882535245654
2	6558	23.8	13.807286799978
2	6586	23.9	13.668709142518
2	6662	24	13.880760889011
2	6699	24.1	13.777897484577
2	6727	24.2	13.738607439713
2	6803	24.3	13.760892643395
2	6840	24.4	13.729651871987
2	6868	24.5	13.818578808371
2	6944	24.6	13.853217276779
2	6981	24.7	13.876934957493
2	7009	24.8	13.785349010874
2	7085	24.9	13.876635136292
2	7122	25	13.725094486005
2	7150	25.1	13.893232753302
2	7233	25.2	13.859865294397
2	7272	25.3	13.785465293773
2	7308	25.4	13.785694136494
2	7392	25.5	13.69480822006
2	7431	25.6	13.860146384023
2	7467	25.7	13.884321762691
2	7545	25.8	13.687740423577
2	7599	25.9	13.811157787603
2	7635	26	13.853691918869
2	7713	26.1	13.875096268463
2	7767	26.2	13.786459400237
2	7803	26.3	13.746383823315
2	7881	26.4	13.792801070237
2	7935	26.5	13.844709772011
2	7971	26.6	13.896990944201
2	8049	26.7	13.656435945746
2	8103	26.8	13.859261394106
2	8139	26.9	13.652647556306
2	8217	27	13.827900374227
2	8271	27.1	13.838484204176
2	8307	27.2	13.793977753236
2	8385	27.3	13.723356323119
2	8439	27.4	13.692835771048
2	8475	27.5	13.841843252338
2	8553	27.6	13.653627142403
2	8607	27.7	13.825860933552
2	8643	27.8	13.873523460387
2	8721	27.9	13.727557933633
2	8775	28	13.679569946462
2	8811	28.1	13.80642595425
2	8889	28.2	13.857036725129
2	8943	28.3	13.6902027198
2	8979	28.4	13.664354099345
2	9057	28.5	13.664947576623
2	9111	28.6	13.658008607256
2	9147	28.7	13.88228255508
2	9225	28.8	13.795628407074
2	9279	28.9	13.804297985369
2	9315	29	13.763278775825
2	9393	29.1	13.675809710845
2	9447	29.2	13.832086807559
2	9483	29.3	13.837896634918
2	9561	29.4	13.806741284125
2	9615	29.5	13.81662313306
2	9651	29.6	13.887827427336
2	9729	29.7	13.873843028652
2	9783	29.8	13.729871379421
2	9819	29.9	13.848769079463
2	9897	30	13.680191309052
2	9952	30.1	13.892441184993
2	10016	30.2	13.806830231368
2	10136	30.3	13.774322613876
2	10198	30.4	13.744442234666
2	10243	30.5	13.875145901786
2	10404	30.6	13.662784743914
2	10466	30.7	13.656979373749
2	10505	30.8	13.725879392854
2	10666	30.9	13.892724997923
2	10728	31	13.770011905557
2	10782	31.1	13.69329394555
2	10943	31.2	13.745293457445
2	11005	31.3	13.744576776028
2	11059	31.4	13.669173484121
2	11220	31.5	13.870975413977
2	11282	31.6	13.661964325269
2	11336	31.7	13.750515818165
2	11497	31.8	13.734720621177
2	11559	31.9	13.672251502261
2	11613	32	13.884730365279
2	11774	32.1	13.853112016374
2	11836	32.2	13.650509436941
2	11890	32.3	13.89870259501
2	12051	32.4	13.729912832181
2	12113	32.5	13.799195490521
2	12167	32.6	13.808018105023
2	12328	32.7	13.751804932056
2	12390	32.8	13.752243275731
2	12450	32.9	13.653842093167
2	12629	33	13.696736534627
2	12718	33.1	13.871628520696
2	12805	33.2	13.884340998402
2	13058	33.3	13.682229357515
2	13147	33.4	13.873248965398
2	13234	33.5	13.886872959475
2	13480	33.6	13.80491620329
2	13569	33.7	13.675310104364
2	13656	33.8	13.754729518003
2	13902	33.9	13.675854685227
2	13991	34	13.785735310498
2	14078	34.1	13.890087385231
2	14331	34.2	13.800046964525
2	14420	34.3	13.800083156943
2	14507	34.4	13.746368076163
2	14760	34.5	13.732051424717
2	14849	34.6	13.798741097364
2	14936	34.7	13.759605679638
2	15189	34.8	13.724195626716
2	15278	34.9	13.729470261524
2	15365	35	13.798939096311
2	15588	35.1	13.811193698936
2	15684	35.2	13.806696010788
2	15800	35.3	13.844650888268
2	16025	35.4	13.883598782681
2	16122	35.5	13.706636114314
2	16232	35.6	13.791753948585
2	16457	35.7	13.712244587927
2	16548	35.8	13.801857804449
2	16658	35.9	13.710179388034
2	16883	36	13.808772041323
2	16974	36.1	13.830664932355
2	17084	36.2	13.888298411539
1	3	0.1	39.95
1	7	0.2	39.95
1	12	0.3	39.998627966244
1	17	0.4	40.094332379548
1	22	0.5	40.23482648051
1	27	0.6	40.417279199278
1	41	0.7	40.642726218835
1	46	0.8	40.906357310195
1	51	0.9	41.211443786276
1	74	1	41.55148788067
1	79	1.1	41.933269772487
1	84	1.2	42.351589488679
1	107	1.3	42.804784957437
1	112	1.4	43.29837088349
1	117	1.5	43.831017129293
1	140	1.6	44.406225009965
1	145	1.7	45.009138565593
1	150	1.8	45.660634296828
1	173	1.9	46.338038458961
1	178	2	47.058626213731
1	183	2.1	47.819627930469
1	206	2.2	48.618688019415
1	211	2.3	49.447954982525
1	216	2.4	50.306917727474
1	239	2.5	51.202658099385
1	244	2.6	52.13639904201
1	249	2.7	53.105938870541
1	272	2.8	54.115659079244
1	277	2.9	55.152239372116
1	282	3	56.217917695767
1	305	3.1	57.33182011795
1	310	3.2	58.487287636092
1	315	3.3	59.690576921811
1	338	3.4	60.927661910615
1	343	3.5	62.214241439441
1	348	3.6	63.541614929834
1	371	3.7	64.898172924155
1	376	3.8	66.264244045297
1	381	3.9	67.634790126375
1	404	4	69.021281356939
1	409	4.1	70.389531053308
1	414	4.2	71.757778872031
1	437	4.3	73.123313413459
1	442	4.4	74.501473212458
1	447	4.5	75.871494248362
1	470	4.6	77.24147147955
1	475	4.7	78.61993449548
1	480	4.8	79.996922558468
1	503	4.9	81.367409329076
1	508	5	82.740437340735
1	513	5.1	84.127480480141
1	543	5.2	85.499464663851
1	550	5.3	86.873466638426
1	572	5.4	88.259882806289
1	603	5.5	89.626266083323
1	610	5.6	91.003219875119
1	632	5.7	92.382853326591
1	663	5.8	93.766239436306
1	670	5.9	95.136883594143
1	692	6	96.515479835744
1	723	6.1	97.891268987036
1	730	6.2	99.280799242085
1	752	6.3	100.65535835456
1	783	6.4	102.0300559615
1	790	6.5	103.40463261154
1	812	6.6	104.77103890965
1	843	6.7	106.14399340221
1	850	6.8	107.52500570466
1	872	6.9	108.90407990584
1	903	7	110.27663912595
1	910	7.1	111.66513348929
1	932	7.2	113.03846432151
1	963	7.3	114.41169837467
1	970	7.4	115.79643881063
1	992	7.5	117.18321565317
1	1023	7.6	118.56532994443
1	1030	7.7	119.94623717509
1	1052	7.8	121.32198225569
1	1083	7.9	122.70101721786
1	1090	8	124.06630787206
1	1112	8.1	125.45375675189
1	1143	8.2	126.83853483293
1	1150	8.3	128.22450209515
1	1172	8.4	129.5981743871
1	1203	8.5	130.98184209706
1	1210	8.6	132.36018432774
1	1232	8.7	133.74407368804
1	1263	8.8	135.13009944838
1	1270	8.9	136.5173400699
1	1292	9	137.8909318301
1	1323	9.1	139.27747725636
1	1330	9.2	140.66256269744
1	1352	9.3	142.0433445683
1	1383	9.4	143.41281973753
1	1390	9.5	144.80039220575
1	1412	9.6	146.16944358308
1	1443	9.7	147.55704112306
1	1450	9.8	148.92262963642
1	1472	9.9	150.30091335647
1	1503	10	151.6664943292
1	1510	10.1	153.04137319125
1	1539	10.2	154.41289160171
1	1578	10.3	155.80191190699
1	1587	10.4	157.16742223873
1	1617	10.5	158.55001873374
1	1656	10.6	159.92280220409
1	1665	10.7	161.30244562938
1	1710	10.8	162.68702507605
1	1743	10.9	164.06286003984
1	1752	11	165.44013581581
1	1797	11.1	166.82778730316
1	1830	11.2	168.215709491
1	1839	11.3	169.59774526712
1	1884	11.4	170.96668671515
1	1917	11.5	172.3387785352
1	1926	11.6	173.72216028109
1	1971	11.7	175.09749745777
1	2004	11.8	176.48337394625
1	2013	11.9	177.8732565592
1	2058	12	179.24901609909
1	2091	12.1	180.62063624858
1	2100	12.2	181.99980404698
1	2145	12.3	183.37540011359
1	2178	12.4	184.74299915385
1	2187	12.5	186.12742211309
1	2232	12.6	187.50042072376
1	2265	12.7	188.86926050711
1	2274	12.8	190.25635545936
1	2319	12.9	191.62601051387
1	2352	13	192.99912453694
1	2361	13.1	194.37459271504
1	2406	13.2	195.74045730958
1	2439	13.3	197.11232595254
1	2448	13.4	198.48899579625
1	2493	13.5	199.86289604134
1	2526	13.6	201.23742582731
1	2535	13.7	202.6269459973
1	2580	13.8	203.99904413396
1	2613	13.9	205.38179219371
1	2622	14	206.75306294781
1	2667	14.1	208.13967609609
1	2700	14.2	209.52736674893
1	2709	14.3	210.90259492986
1	2754	14.4	212.29175430251
1	2787	14.5	213.66545172065
1	2796	14.6	215.04992015358
1	2841	14.7	216.43073110679
1	2874	14.8	217.79613005091
1	2883	14.9	219.16597520111
1	2928	15	220.54477704677
1	2961	15.1	221.91178998145
1	2971	15.2	223.29005875215
1	3030	15.3	224.67632254454
1	3065	15.4	226.06226022125
1	3076	15.5	227.44916472169
1	3144	15.6	228.81898174769
1	3179	15.7	230.19880216524
1	3190	15.8	231.57136644593
1	3258	15.9	232.9433150558
1	3293	16	234.308927018
1	3304	16.1	235.69863416596
1	3372	16.2	237.07038440192
1	3407	16.3	238.44735848685
1	3418	16.4	239.83235857371
1	3486	16.5	241.20251613115
1	3521	16.6	242.58388233918
1	3532	16.7	243.9562719792
1	3600	16.8	245.34215462529
1	3635	16.9	246.71772391066
1	3646	17	248.08436856061
1	3714	17.1	249.46097774068
1	3749	17.2	250.83272469002
1	3760	17.3	252.21276916334
1	3828	17.4	253.5981143382
1	3863	17.5	254.96962556829
1	3874	17.6	256.35394020256
1	3942	17.7	257.7424894735
1	3977	17.8	259.12469457658
1	3988	17.9	260.50525078065
1	4056	18	261.89463381243
1	4091	18.1	263.26764899303
1	4102	18.2	264.64423451282
1	4170	18.3	266.00947603917
1	4205	18.4	267.38289908408
1	4216	18.5	268.77238280896
1	4284	18.6	270.15438238034
1	4319	18.7	271.5296744524
1	4330	18.8	272.90394990618
1	4398	18.9	274.28711135535
1	4433	19	275.67247045677
1	4444	19.1	277.04528324995
1	4512	19.2	278.41159898508
1	4547	19.3	279.79525044395
1	4558	19.4	281.17229542616
1	4626	19.5	282.5571086742
1	4661	19.6	283.93775442473
1	4672	19.7	285.32081370702
1	4740	19.8	286.68921731699
1	4775	19.9	288.06628283921
1	4786	20	289.43836134721
1	4854	20.1	290.81422581452
1	4890	20.2	292.20060462046
1	4903	20.3	293.58171430208
1	4985	20.4	294.95303944614
1	5022	20.5	296.34095388527
1	5035	20.6	297.72981351937
1	5111	20.7	299.11379279994
1	5148	20.8	300.48990156901
1	5176	20.9	301.86027274625
1	5252	21	303.24573196611
1	5289	21.1	304.61129458773
1	5317	21.2	305.99583451653
1	5393	21.3	307.36210154599
1	5430	21.4	308.73994755703
1	5458	21.5	310.12262204992
1	5534	21.6	311.49328889955
1	5571	21.7	312.87958537805
1	5599	21.8	314.25074613794
1	5675	21.9	315.63153152286
1	5712	22	317.01408547732
1	5740	22.1	318.39847755172
1	5816	22.2	319.7742472828
1	5853	22.3	321.14158339535
1	5881	22.4	322.52159592243
1	5957	22.5	323.90579006889
1	5994	22.6	325.27196830211
1	6022	22.7	326.64270378339
1	6098	22.8	328.0264382154
1	6135	22.9	329.41030403508
1	6163	23	330.77956397902
1	6239	23.1	332.16280578143
1	6276	23.2	333.54089385134
1	6304	23.3	334.91949033724
1	6380	23.4	336.28817446415
1	6417	23.5	337.67364569008
1	6445	23.6	339.04714469353
1	6521	23.7	340.41770950459
1	6558	23.8	341.80596302915
1	6586	23.9	343.18669170915
1	6662	24	344.5535626234
1	6699	24.1	345.9416387123
1	6727	24.2	347.31942846076
1	6803	24.3	348.69328920473
1	6840	24.4	350.06937846907
1	6868	24.5	351.44234365627
1	6944	24.6	352.82420153711
1	6981	24.7	354.20952326478
1	7009	24.8	355.59721676053
1	7085	24.9	356.97575166162
1	7122	25	358.36341517525
1	7150	25.1	359.73592462385
1	7233	25.2	361.12524789918
1	7272	25.3	362.51123442862
1	7308	25.4	363.889780958
1	7392	25.5	365.26835037165
1	7431	25.6	366.63783119365
1	7467	25.7	368.02384583205
1	7545	25.8	369.41227800832
1	7599	25.9	370.78105205068
1	7635	26	372.16216782944
1	7713	26.1	373.54753702133
1	7767	26.2	374.93504664818
1	7803	26.3	376.3136925882
1	7881	26.4	377.68833097053
1	7935	26.5	379.06761107755
1	7971	26.6	380.45208205476
1	8049	26.7	381.84178114918
1	8103	26.8	383.20742474375
1	8139	26.9	384.59335088316
1	8217	27	385.95861563879
1	8271	27.1	387.34140567621
1	8307	27.2	388.72525409663
1	8385	27.3	390.10465187195
1	8439	27.4	391.47698750427
1	8475	27.5	392.84627108137
1	8553	27.6	394.23045540661
1	8607	27.7	395.59581812085
1	8643	27.8	396.9784042142
1	8721	27.9	398.36575656024
1	8775	28	399.7385123536
1	8811	28.1	401.10646934825
1	8889	28.2	402.48711194367
1	8943	28.3	403.87281561619
1	8979	28.4	405.24183588817
1	9057	28.5	406.6082712981
1	9111	28.6	407.97476605576
1	9147	28.7	409.34056691649
1	9225	28.8	410.728795172
1	9279	28.9	412.1083580127
1	9315	29	413.48878781124
1	9393	29.1	414.86511568882
1	9447	29.2	416.23269665991
1	9483	29.3	417.61590534066
1	9561	29.4	418.99969500416
1	9615	29.5	420.38036913257
1	9651	29.6	421.76203144587
1	9729	29.7	423.15081418861
1	9783	29.8	424.53819849147
1	9819	29.9	425.91118562942
1	9897	30	427.29606253736
1	9952	30.1	428.66408166827
1	10016	30.2	430.05332578677
1	10136	30.3	431.4340088099
1	10198	30.4	432.81144107129
1	10243	30.5	434.18588529476
1	10404	30.6	435.57339988494
1	10466	30.7	436.93967835933
1	10505	30.8	438.3053762967
1	10666	30.9	439.67796423599
1	10728	31	441.06723673578
1	10782	31.1	442.44423792634
1	10943	31.2	443.81356732089
1	11005	31.3	445.18809666664
1	11059	31.4	446.56255434424
1	11220	31.5	447.92947169265
1	11282	31.6	449.31656923405
1	11336	31.7	450.68276566657
1	11497	31.8	452.05781724839
1	11559	31.9	453.43128931051
1	11613	32	454.79851446074
1	11774	32.1	456.18698749726
1	11836	32.2	457.5722986989
1	11890	32.3	458.93734964259
1	12051	32.4	460.3272199021
1	12113	32.5	461.70021118531
1	12167	32.6	463.08013073437
1	12328	32.7	464.46093254487
1	12390	32.8	465.83611303807
1	12450	32.9	467.21133736565
1	12629	33	468.57672157496
1	12718	33.1	469.94639522843
1	12805	33.2	471.3335580805
1	13058	33.3	472.72199218034
1	13147	33.4	474.09021511609
1	13234	33.5	475.47754001263
1	13480	33.6	476.86622730857
1	13569	33.7	478.2467189289
1	13656	33.8	479.61424993934
1	13902	33.9	480.98972289114
1	13991	34	482.35730835966
1	14078	34.1	483.73588189071
1	14331	34.2	485.12489062924
1	14420	34.3	486.50489532569
1	14507	34.4	487.88490364138
1	14760	34.5	489.259540449
1	14849	34.6	490.63274559147
1	14936	34.7	492.01261970121
1	15189	34.8	493.38858026917
1	15278	34.9	494.76099983184
1	15365	35	496.133946858
1	15588	35.1	497.51384076763
1	15684	35.2	498.89496013752
1	15800	35.3	500.2756297386
1	16025	35.4	501.66009482743
1	16122	35.5	503.04845470569
1	16232	35.6	504.41911831712
1	16457	35.7	505.79829371198
1	16548	35.8	507.16951817078
1	16658	35.9	508.54970395122
1	16883	36	509.92072189002
1	16974	36.1	511.30159909416
1	17084	36.2	512.68466558739
0	3	0.1	20.05
0	7	0.2	20.05
0	12	0.3	20.05
0	17	0.4	20.05
0	22	0.5	20.05
0	27	0.6	20.05
0	41	0.7	20.05
0	46	0.8	20.05
0	51	0.9	20.05
0	74	1	20.05
0	79	1.1	20.05
0	84	1.2	20.05
0	107	1.3	20.05
0	112	1.4	20.05
0	117	1.5	20.05
0	140	1.6	20.05
0	145	1.7	20.05
0	150	1.8	20.05
0	173	1.9	20.05
0	178	2	20.05
0	183	2.1	20.05
0	206	2.2	20.05
0	211	2.3	20.05
0	216	2.4	20.05
0	239	2.5	20.05
0	244	2.6	20.05
0	249	2.7	20.05
0	272	2.8	20.05
0	277	2.9	20.05
0	282	3	20.05
0	305	3.1	20.05
0	310	3.2	20.05
0	315	3.3	20.05
0	338	3.4	20.05
0	343	3.5	20.05
0	348	3.6	20.05
0	371	3.7	20.05
0	376	3.8	20.05
0	381	3.9	20.05
0	404	4	20.05
0	409	4.1	20.05
0	414	4.2	20.05
0	437	4.3	20.05
0	442	4.4	20.05
0	447	4.5	20.05
0	470	4.6	20.05
0	475	4.7	20.05
0	480	4.8	20.05
0	503	4.9	20.05
0	508	5	20.05
0	513	5.1	20.05
0	543	5.2	20.05
0	550	5.3	20.05
0	572	5.4	20.05
0	603	5.5	20.05
0	610	5.6	20.05
0	632	5.7	20.05
0	663	5.8	20.05
0	670	5.9	20.05
0	692	6	20.05
0	723	6.1	20.05
0	730	6.2	20.05
0	752	6.3	20.05
0	783	6.4	20.05
0	790	6.5	20.05
0	812	6.6	20.05
0	843	6.7	20.05
0	850	6.8	20.05
0	872	6.9	20.05
0	903	7	20.05
0	910	7.1	20.05
0	932	7.2	20.05
0	963	7.3	20.05
0	970	7.4	20.05
0	992	7.5	20.05
0	1023	7.6	20.05
0	1030	7.7	20.05
0	1052	7.8	20.05
0	1083	7.9	20.05
0	1090	8	20.05
0	1112	8.1	20.05
0	1143	8.2	20.05
0	1150	8.3	20.05
0	1172	8.4	20.05
0	1203	8.5	20.05
0	1210	8.6	20.05
0	1232	8.7	20.05
0	1263	8.8	20.05
0	1270	8.9	20.05
0	1292	9	20.05
0	1323	9.1	20.05
0	1330	9.2	20.05
0	1352	9.3	20.05
0	1383	9.4	20.05
0	1390	9.5	20.05
0	1412	9.6	20.05
0	1443	9.7	20.05
0	1450	9.8	20.05
0	1472	9.9	20.05
0	1503	10	20.05
0	1510	10.1	20.05
0	1539	10.2	20.05
0	1578	10.3	20.05
0	1587	10.4	20.05
0	1617	10.5	20.05
0	1656	10.6	20.05
0	1665	10.7	20.05
0	1710	10.8	20.05
0	1743	10.9	20.05
0	1752	11	20.05
0	1797	11.1	20.05
0	1830	11.2	20.05
0	1839	11.3	20.05
0	1884	11.4	20.05
0	1917	11.5	16.75
0	1926	11.6	16.75
0	1971	11.7	16.75
0	2004	11.8	16.75
0	2013	11.9	16.75
0	2058	12	16.75
0	2091	12.1	16.75
0	2100	12.2	16.75
0	2145	12.3	16.75
0	2178	12.4	16.75
0	2187	12.5	16.75
0	2232	12.6	16.75
0	2265	12.7	16.75
0	2274	12.8	16.75
0	2319	12.9	16.75
0	2352	13	16.75
0	2361	13.1	16.75
0	2406	13.2	16.75
0	2439	13.3	16.75
0	2448	13.4	16.75
0	2493	13.5	16.75
0	2526	13.6	16.75
0	2535	13.7	16.75
0	2580	13.8	16.75
0	2613	13.9	16.75
0	2622	14	16.75
0	2667	14.1	16.75
0	2700	14.2	16.75
0	2709	14.3	16.75
0	2754	14.4	16.75
0	2787	14.5	16.75
0	2796	14.6	16.75
0	2841	14.7	16.75
0	2874	14.8	16.75
0	2883	14.9	16.75
0	2928	15	16.75
0	2961	15.1	16.75
0	2971	15.2	16.75
0	3030	15.3	16.75
0	3065	15.4	16.75
0	3076	15.5	16.75
0	3144	15.6	16.75
0	3179	15.7	16.75
0	3190	15.8	16.75
0	3258	15.9	16.75
0	3293	16	16.75
0	3304	16.1	16.75
0	3372	16.2	16.75
0	3407	16.3	16.75
0	3418	16.4	16.75
0	3486	16.5	16.75
0	3521	16.6	16.75
0	3532	16.7	16.75
0	3600	16.8	16.75
0	3635	16.9	16.75
0	3646	17	16.75
0	3714	17.1	16.75
0	3749	17.2	16.75
0	3760	17.3	16.75
0	3828	17.4	16.75
0	3863	17.5	16.75
0	3874	17.6	16.75
0	3942	17.7	16.75
0	3977	17.8	16.75
0	3988	17.9	16.75
0	4056	18	16.75
0	4091	18.1	16.75
0	4102	18.2	16.75
0	4170	18.3	16.75
0	4205	18.4	16.75
0	4216	18.5	16.75
0	4284	18.6	16.75
0	4319	18.7	16.75
0	4330	18.8	16.75
0	4398	18.9	16.75
0	4433	19	16.75
0	4444	19.1	16.75
0	4512	19.2	16.75
0	4547	19.3	16.75
0	4558	19.4	16.75
0	4626	19.5	16.75
0	4661	19.6	16.75
0	4672	19.7	16.75
0	4740	19.8	16.75
0	4775	19.9	16.75
0	4786	20	16.75
0	4854	20.1	16.75
0	4890	20.2	16.75
0	4903	20.3	16.75
0	4985	20.4	16.75
0	5022	20.5	16.75
0	5035	20.6	16.75
0	5111	20.7	16.75
0	5148	20.8	16.75
0	5176	20.9	16.75
0	5252	21	16.75
0	5289	21.1	16.75
0	5317	21.2	16.75
0	5393	21.3	16.75
0	5430	21.4	16.75
0	5458	21.5	16.75
0	5534	21.6	16.75
0	5571	21.7	16.75
0	5599	21.8	16.75
0	5675	21.9	16.75
0	5712	22	16.75
0	5740	22.1	16.75
0	5816	22.2	16.75
0	5853	22.3	16.75
0	5881	22.4	16.75
0	5957	22.5	16.75
0	5994	22.6	16.75
0	6022	22.7	16.75
0	6098	22.8	16.75
0	6135	22.9	16.75
0	6163	23	16.75
0	6239	23.1	16.75
0	6276	23.2	16.75
0	6304	23.3	16.75
0	6380	23.4	16.75
0	6417	23.5	16.75
0	6445	23.6	16.75
0	6521	23.7	16.75
0	6558	23.8	16.75
0	6586	23.9	16.75
0	6662	24	16.75
0	6699	24.1	16.75
0	6727	24.2	16.75
0	6803	24.3	16.75
0	6840	24.4	16.75
0	6868	24.5	16.75
0	6944	24.6	16.75
0	6981	24.7	16.75
0	7009	24.8	16.75
0	7085	24.9	16.75
0	7122	25	16.75
0	7150	25.1	16.75
0	7233	25.2	16.75
0	7272	25.3	16.75
0	7308	25.4	16.75
0	7392	25.5	16.75
0	7431	25.6	16.75
0	7467	25.7	16.75
0	7545	25.8	16.75
0	7599	25.9	16.75
0	7635	26	16.75
0	7713	26.1	16.75
0	7767	26.2	16.75
0	7803	26.3	16.75
0	7881	26.4	16.75
0	7935	26.5	16.75
0	7971	26.6	16.75
0	8049	26.7	16.75
0	8103	26.8	16.75
0	8139	26.9	16.75
0	8217	27	16.75
0	8271	27.1	16.75
0	8307	27.2	16.75
0	8385	27.3	16.75
0	8439	27.4	16.75
0	8475	27.5	16.75
0	8553	27.6	16.75
0	8607	27.7	16.75
0	8643	27.8	16.75
0	8721	27.9	16.75
0	8775	28	16.75
0	8811	28.1	16.75
0	8889	28.2	16.75
0	8943	28.3	16.75
0	8979	28.4	16.75
0	9057	28.5	16.75
0	9111	28.6	16.75
0	9147	28.7	16.75
0	9225	28.8	16.75
0	9279	28.9	16.75
0	9315	29	16.75
0	9393	29.1	16.75
0	9447	29.2	16.75
0	9483	29.3	16.75
0	9561	29.4	16.75
0	9615	29.5	16.75
0	9651	29.6	16.75
0	9729	29.7	16.75
0	9783	29.8	16.75
0	9819	29.9	16.75
0	9897	30	16.75
0	9952	30.1	16.75
0	10016	30.2	16.75
0	10136	30.3	16.75
0	10198	30.4	16.75
0	10243	30.5	16.75
0	10404	30.6	16.75
0	10466	30.7	16.75
0	10505	30.8	16.75
0	10666	30.9	16.75
0	10728	31	16.75
0	10782	31.1	16.75
0	10943	31.2	16.75
0	11005	31.3	16.75
0	11059	31.4	16.75
0	11220	31.5	16.75
0	11282	31.6	16.75
0	11336	31.7	16.75
0	11497	31.8	16.75
0	11559	31.9	16.75
0	11613	32	16.75
0	11774	32.1	16.75
0	11836	32.2	16.75
0	11890	32.3	16.75
0	12051	32.4	16.75
0	12113	32.5	16.75
0	12167	32.6	16.75
0	12328	32.7	16.75
0	12390	32.8	16.75
0	12450	32.9	16.75
0	12629	33	16.75
0	12718	33.1	16.75
0	12805	33.2	16.75
0	13058	33.3	16.75
0	13147	33.4	16.75
0	13234	33.5	16.75
0	13480	33.6	16.75
0	13569	33.7	16.75
0	13656	33.8	16.75
0	13902	33.9	16.75
0	13991	34	16.75
0	14078	34.1	16.75
0	14331	34.2	16.75
0	14420	34.3	16.75
0	14507	34.4	16.75
0	14760	34.5	16.75
0	14849	34.6	16.75
0	14936	34.7	16.75
0	15189	34.8	16.75
0	15278	34.9	16.75
0	15365	35	16.75
0	15588	35.1	16.75
0	15684	35.2	16.75
0	15800	35.3	16.75
0	16025	35.4	16.75
0	16122	35.5	16.75
0	16232	35.6	16.75
0	16457	35.7	16.75
0	16548	35.8	16.75
0	16658	35.9	16.75
0	16883	36	16.75
0	16974	36.1	16.75
0	17084	36.2	16.75
vector 40 RSUExampleScenario.node[8].veinsmobility posx ETV
vector 41 RSUExampleScenario.node[8].veinsmobility posy ETV
vector 42 RSUExampleScenario.node[8].veinsmobility speed ETV
vector 43 RSUExampleScenario.node[8].veinsmobility acceleration ETV
vector 44 RSUExampleScenario.node[8].veinsmobility co2emission ETV
9	550	5.3	2.2507100656096
9	572	5.4	2.6821417186923
9	603	5.5	3.4376998153713
9	610	5.6	3.7206301891985
9	632	5.7	4.4551939067696
9	663	5.8	4.171617123524
9	670	5.9	5.3358053633909
9	692	6	6.0018893785746
9	723	6.1	5.9950501935972
9	730	6.2	6.9464200064133
9	752	6.3	7.2280209425888
9	783	6.4	7.1038735276876
9	790	6.5	5.4802853036434
9	812	6.6	7.53704206158
9	843	6.7	7.2072667525243
9	850	6.8	6.2092563505358
9	872	6.9	10.23770353672
9	903	7	6.4206840448229
9	910	7.1	8.2180672517694
9	932	7.2	11.137984151306
9	963	7.3	10.595163206483
9	970	7.4	8.7061737266315
9	992	7.5	9.8317873147054
9	1023	7.6	11.944923459375
9	1030	7.7	14.316564892734
9	1052	7.8	10.803272724039
9	1083	7.9	8.8387272436167
9	1090	8	11.215216502833
9	1112	8.1	11.649125537163
9	1143	8.2	9.2350481472523
9	1150	8.3	12.603299374676
9	1172	8.4	14.28341610703
9	1203	8.5	14.200543150964
9	1210	8.6	13.326603855544
9	1232	8.7	7.4316404126122
9	1263	8.8	0.973
9	1270	8.9	4.9978964779434
9	1292	9	0.973
9	1323	9.1	0.973
9	1330	9.2	4.38715506042
9	1352	9.3	7.4617963379654
9	1383	9.4	0.973
9	1390	9.5	1.5912024619533
9	1412	9.6	0.973
9	1443	9.7	2.7792126981564
9	1450	9.8	5.0741065918153
9	1472	9.9	5.8247843457844
9	1503	10	0.973
9	1510	10.1	5.6377777214446
9	1539	10.2	0.973
9	1578	10.3	4.712356851243
9	1587	10.4	0.973
9	1617	10.5	3.3770940207219
9	1656	10.6	0.973
9	1665	10.7	3.8782882399323
9	1710	10.8	0.973
9	1743	10.9	4.8513844749108
9	1752	11	0.973
9	1797	11.1	1.9381705802555
9	1830	11.2	9.7313591772944
9	1839	11.3	0.973
9	1884	11.4	0.973
9	1917	11.5	7.5180318432267
9	1926	11.6	0.973
9	1971	11.7	0.973
9	2004	11.8	7.7256071608787
9	2013	11.9	0.973
9	2058	12	1.8674435122111
9	2091	12.1	2.3534997565892
9	2100	12.2	0.973
9	2145	12.3	0.973
9	2178	12.4	0.973
9	2187	12.5	5.7093514341736
9	2232	12.6	0.973
9	2265	12.7	7.6948939905842
9	2274	12.8	0.973
9	2319	12.9	0.973
9	2352	13	6.7497856160546
9	2361	13.1	0.973
9	2406	13.2	2.283904175649
9	2439	13.3	0.973
9	2448	13.4	6.6852703343607
9	2493	13.5	0.973
9	2526	13.6	3.148223277391
9	2535	13.7	0.973
9	2580	13.8	4.320313561176
9	2613	13.9	1.6412596669803
9	2622	14	4.7503417444238
9	2667	14.1	0.973
9	2700	14.2	2.1651438052111
9	2709	14.3	1.1730159102829
9	2754	14.4	4.7865467632561
9	2787	14.5	0.973
9	2796	14.6	8.7082745198245
9	2841	14.7	0.973
9	2874	14.8	4.9585326375598
9	2883	14.9	5.6775425265639
9	2928	15	0.973
9	2961	15.1	0.973
9	2971	15.2	2.7818658302921
9	3030	15.3	5.304596391677
9	3065	15.4	0.973
9	3076	15.5	5.0744330592807
9	3144	15.6	5.1930084579865
9	3179	15.7	0.973
9	3190	15.8	4.7274387996874
9	3258	15.9	2.312530074298
9	3293	16	0.973
9	3304	16.1	2.1328839230356
9	3372	16.2	4.178231784134
9	3407	16.3	4.6123520644718
9	3418	16.4	0.973
9	3486	16.5	0.973
9	3521	16.6	4.8922330733914
9	3532	16.7	2.8179335776808
9	3600	16.8	0.973
9	3635	16.9	5.6209773439788
9	3646	17	0.973
9	3714	17.1	1.1796485987391
9	3749	17.2	8.2978194111948
9	3760	17.3	1.9700312057431
9	3828	17.4	0.973
9	3863	17.5	0.973
9	3874	17.6	7.2487939952133
9	3942	17.7	0.973
9	3977	17.8	4.193966707413
9	3988	17.9	0.973
9	4056	18	5.1384508878969
9	4091	18.1	0.973
9	4102	18.2	3.1589383274582
9	4170	18.3	0.973
9	4205	18.4	7.6707995936679
9	4216	18.5	0.973
9	4284	18.6	6.8472356509222
9	4319	18.7	4.747301539943
9	4330	18.8	0.973
9	4398	18.9	0.973
9	4433	19	3.6474739999691
9	4444	19.1	4.1409360180641
9	4512	19.2	1.3190751671982
9	4547	19.3	0.973
9	4558	19.4	4.6810122425144
9	4626	19.5	0.973
9	4661	19.6	5.8617424770162
9	4672	19.7	0.973
9	4740	19.8	5.9396807119538
9	4775	19.9	0.973
9	4786	20	0.973
9	4854	20.1	7.6645456326368
9	4890	20.2	0.973
9	4903	20.3	1.7900860453146
9	4985	20.4	2.0048181440148
9	5022	20.5	0.973
9	5035	20.6	4.3665321097988
9	5111	20.7	0.973
9	5148	20.8	1.5530023902848
9	5176	20.9	9.7260413876716
9	5252	21	0.973
9	5289	21.1	0.973
9	5317	21.2	5.9116506786708
9	5393	21.3	0.973
9	5430	21.4	0.973
9	5458	21.5	8.9886766113742
9	5534	21.6	0.973
9	5571	21.7	4.3651778873878
9	5599	21.8	2.7406116821294
9	5675	21.9	3.8653389369351
9	5712	22	0.973
9	5740	22.1	2.0681166895237
9	5816	22.2	6.6862244156571
9	5853	22.3	4.7884710121121
9	5881	22.4	0.973
9	5957	22.5	3.6684971122608
9	5994	22.6	5.5274602676974
9	6022	22.7	3.8238462347949
9	6098	22.8	0.973
9	6135	22.9	0.973
9	6163	23	7.0606055510238
9	6239	23.1	1.6423346791327
9	6276	23.2	0.973
9	6304	23.3	4.0300727357867
9	6380	23.4	0.973
9	6417	23.5	0.973
9	6445	23.6	2.1407639741547
9	6521	23.7	2.7906749751898
9	6558	23.8	5.8193712832611
9	6586	23.9	2.7710196010936
9	6662	24	0.973
9	6699	24.1	1.118566304537
9	6727	24.2	2.8656174674488
9	6803	24.3	1.7275492588141
9	6840	24.4	0.973
9	6868	24.5	4.1540170518369
9	6944	24.6	4.2249743918927
9	6981	24.7	0.973
9	7009	24.8	0.973
9	7085	24.9	1.1517615820668
9	7122	25	4.697785661816
9	7150	25.1	1.5500475861209
9	7233	25.2	7.2725215620839
9	7272	25.3	0.973
9	7308	25.4	5.4199955230231
9	7392	25.5	1.5221987855623
9	7431	25.6	2.554399613925
9	7467	25.7	0.973
9	7545	25.8	3.6170893306909
9	7599	25.9	4.4961191334102
9	7635	26	0.973
9	7713	26.1	3.9694962036571
9	7767	26.2	6.655553690665
9	7803	26.3	0.973
9	7881	26.4	3.5821606428904
9	7935	26.5	2.5914141391437
9	7971	26.6	2.7560178257105
9	8049	26.7	2.9899053124107
9	8103	26.8	0.973
9	8139	26.9	5.8746033024142
9	8217	27	4.5164685896155
9	8271	27.1	0.973
9	8307	27.2	3.1468965174344
9	8385	27.3	0.973
9	8439	27.4	5.1399828679728
9	8475	27.5	1.3034866636567
9	8553	27.6	2.5788983354319
9	8607	27.7	4.2040963752195
9	8643	27.8	0.973
9	8721	27.9	2.8860637836237
9	8775	28	0.973
9	8811	28.1	4.574122438133
9	8889	28.2	0.973
9	8943	28.3	3.2851369589977
9	8979	28.4	3.2781161318311
9	9057	28.5	0.973
9	9111	28.6	3.8377109528627
9	9147	28.7	0.973
9	9225	28.8	1.3136433693193
9	9279	28.9	0.973
9	9315	29	1.8450130434814
9	9393	29.1	8.3970344116478
9	9447	29.2	1.5426836189269
9	9483	29.3	0.973
9	9561	29.4	1.9498588741095
9	9615	29.5	6.7266276301226
9	9651	29.6	0.973
9	9729	29.7	5.2436650321839
9	9783	29.8	1.8689095687651
9	9819	29.9	0.973
9	9897	30	5.392109288168
9	9952	30.1	0.973
9	10016	30.2	7.1387819715497
9	10136	30.3	0.973
9	10198	30.4	5.3562874198143
9	10243	30.5	0.973
9	10404	30.6	3.5844815370171
9	10466	30.7	0.973
9	10505	30.8	3.2477139964462
9	10666	30.9	0.973
9	10728	31	5.4100864631418
9	10782	31.1	1.7921290612427
9	10943	31.2	2.7029622098975
9	11005	31.3	0.973
9	11059	31.4	0.973
9	11220	31.5	7.4231098117901
9	11282	31.6	0.973
9	11336	31.7	2.9842197781766
9	11497	31.8	2.9421334470045
9	11559	31.9	2.7579846959892
9	11613	32	0.973
9	11774	32.1	0.973
9	11836	32.2	7.6349898176022
9	11890	32.3	0.973
9	12051	32.4	8.5253185623733
9	12113	32.5	1.3245730949281
9	12167	32.6	0.973
9	12328	32.7	8.6653424398192
9	12390	32.8	0.973
9	12450	32.9	5.9294749080179
9	12629	33	2.731934896477
9	12718	33.1	0.973
9	12805	33.2	7.6918872985051
9	13058	33.3	0.973
9	13147	33.4	3.5857157664721
9	13234	33.5	0.973
9	13480	33.6	8.0659968052149
9	13569	33.7	0.973
9	13656	33.8	6.0080237271167
9	13902	33.9	4.736910861555
9	13991	34	0.973
9	14078	34.1	5.2938918260228
9	14331	34.2	2.5160796468684
9	14420	34.3	0.973
9	14507	34.4	1.8263690903588
9	14760	34.5	1.475215620004
9	14849	34.6	1.6005916126718
9	14936	34.7	2.3285575016843
9	15189	34.8	2.6040562313357
9	15278	34.9	0.973
9	15365	35	1.2543440802929
9	15588	35.1	9.8908738014402
9	15684	35.2	0.973
9	15800	35.3	7.2595065737123
9	16025	35.4	0.973
9	16122	35.5	0.973
9	16232	35.6	5.8240628525404
9	16457	35.7	2.3399909904814
9	16548	35.8	0.973
9	16658	35.9	4.4290983699464
9	16883	36	2.2518386892587
9	16974	36.1	5.8181583900112
9	17084	36.2	0.973
9	17309	36.3	5.4919729528606
9	17383	36.4	0.973
9	17491	36.5	6.5990404172354
9	17696	36.6	0.973
9	17770	36.7	1.171772339459
9	17878	36.8	6.4533913378674
9	18083	36.9	0.973
9	18157	37	2.9020586992399
9	18265	37.1	2.1647272024429
9	18463	37.2	4.6747386849161
9	18537	37.3	2.144494203751
9	18645	37.4	0.973
9	18850	37.5	6.7829940834435
9	18924	37.6	0.973
9	19032	37.7	0.973
9	19255	37.8	6.4424914015281
9	19335	37.9	3.9938162833611
9	19443	38	0.973
9	19666	38.1	3.7462953660941
9	19746	38.2	1.8350901000448
9	19854	38.3	6.5447640864571
9	20077	38.4	0.973
9	20157	38.5	6.8435773370765
9	20265	38.6	0.973
9	20488	38.7	8.4981487801332
9	20568	38.8	0.973
9	20676	38.9	7.6372185258296
9	20899	39	0.973
9	20979	39.1	2.3960264370469
9	21087	39.2	1.4755377896332
9	21310	39.3	5.1489269829741
9	21390	39.4	0.973
9	21498	39.5	0.973
9	21721	39.6	1.2453343199962
9	21801	39.7	8.9708943996547
9	21909	39.8	0.973
9	22132	39.9	1.1692018969865
9	22212	40	2.3750672061721
9	22320	40.1	2.1733158199266
9	22544	40.2	2.0908460601045
9	22626	40.3	1.5653224421684
9	22748	40.4	0.973
9	22973	40.5	4.4852697214528
9	23055	40.6	1.5168607301013
9	23171	40.7	4.3462395237318
9	23396	40.8	0.973
9	23478	40.9	8.7336486537215
9	23609	41	2.1887647319759
9	23834	41.1	0.973
9	23916	41.2	0.973
8	550	5.3	4.7352229090607
8	572	5.4	4.4466006028432
8	603	5.5	4.8991954532851
8	610	5.6	4.4332065221547
8	632	5.7	4.7356994895089
8	663	5.8	3.7802375555528
8	670	5.9	4.6006307121493
8	692	6	4.7195217549562
8	723	6.1	4.2511563237269
8	730	6.2	4.6258128405316
8	752	6.3	4.4441965362057
8	783	6.4	4.0337775548687
8	790	6.5	2.7435038215481
8	812	6.6	3.8751250260975
8	843	6.7	3.4673413453856
8	850	6.8	2.7441285544774
8	872	6.9	4.7517991211498
8	903	7	2.5754773285007
8	910	7.1	3.3671499195043
8	932	7.2	4.5727260346757
8	963	7.3	4.1046195745002
8	970	7.4	3.1232846528292
8	992	7.5	3.4804233332397
8	1023	7.6	4.1873819311149
8	1030	7.7	4.903936436167
8	1052	7.8	3.4143148671137
8	1083	7.9	2.602626826847
8	1090	8	3.3680242026458
8	1112	8.1	3.4123528073542
8	1143	8.2	2.5117510859855
8	1150	8.3	3.5453741694801
8	1172	8.4	3.9640785299707
8	1203	8.5	3.8132562371902
8	1210	8.6	3.4412247349974
8	1232	8.7	1.625327108419
8	1263	8.8	-0.84186176187359
8	1270	8.9	0.89387644373346
8	1292	9	-1.1528593424009
8	1323	9.1	-0.42806392419152
8	1330	9.2	0.71761045837775
8	1352	9.3	1.6223880654434
8	1383	9.4	-1.5231861284701
8	1390	9.5	-0.12703384447377
8	1412	9.6	-0.74571341974661
8	1443	9.7	0.23437882598955
8	1450	9.8	0.92142274195794
8	1472	9.9	1.1347741971258
8	1503	10	-0.98861130245496
8	1510	10.1	1.0779288539197
8	1539	10.2	-1.0543081228388
8	1578	10.3	0.80378589220345
8	1587	10.4	-0.90174242912326
8	1617	10.5	0.40727590734605
8	1656	10.6	-1.5006307489239
8	1665	10.7	0.56440838379785
8	1710	10.8	-0.43157611158676
8	1743	10.9	0.85463627765421
8	1752	11	-0.99477389769163
8	1797	11.1	-0.020346464589238
8	1830	11.2	2.2998487402219
8	1839	11.3	-0.30610290064942
8	1884	11.4	-1.7739706503926
8	1917	11.5	1.6454868967412
8	1926	11.6	-0.92407530173659
8	1971	11.7	-0.69029636040796
8	2004	11.8	1.7062456626445
8	2013	11.9	-0.30891551345121
8	2058	12	-0.046171159483492
8	2091	12.1	0.099308231729083
8	2100	12.2	-0.36836284620222
8	2145	12.3	-0.44038405816536
8	2178	12.4	-0.79825632332359
8	2187	12.5	1.1110726307379
8	2232	12.6	-1.328613863443
8	2265	12.7	1.7028349306202
8	2274	12.8	-0.28595797542948
8	2319	12.9	-1.1732076475164
8	2352	13	1.4197121717734
8	2361	13.1	-0.94828314846382
8	2406	13.2	0.08215794339776
8	2439	13.3	-0.74103806400672
8	2448	13.4	1.403035869007
8	2493	13.5	-0.52880981180351
8	2526	13.6	0.34065257117618
8	2535	13.7	-0.47510337491985
8	2580	13.8	0.69177828088868
8	2613	13.9	-0.11326618143357
8	2622	14	0.81476334657054
8	2667	14.1	-1.1677538789809
8	2700	14.2	0.045371641172096
8	2709	14.3	-0.25346140086185
8	2754	14.4	0.83050892921165
8	2787	14.5	-1.4388733863598
8	2796	14.6	1.9982166792033
8	2841	14.7	-1.9866585789714
8	2874	14.8	0.88725210225675
8	2883	14.9	1.0919890768128
8	2928	15	-0.63021193491295
8	2961	15.1	-1.616338355816
8	2971	15.2	0.23549814650323
8	3030	15.3	0.99083073495422
8	3065	15.4	-0.67683891975321
8	3076	15.5	0.9191357344389
8	3144	15.6	0.94543584506027
8	3179	15.7	-0.85017091594636
8	3190	15.8	0.80675659992266
8	3258	15.9	0.084900358342566
8	3293	16	-1.8707093212288
8	3304	16.1	0.03728112555109
8	3372	16.2	0.65112576412503
8	3407	16.3	0.77514668519143
8	3418	16.4	-0.70990177046042
8	3486	16.5	-1.2016719370149
8	3521	16.6	0.86866084544454
8	3532	16.7	0.24157279753126
8	3600	16.8	-0.49767945951317
8	3635	16.9	1.0795888589928
8	3646	17	-1.4925472711911
8	3714	17.1	-0.25052080804016
8	3749	17.2	1.8802481592866
8	3760	17.3	-0.015897164703347
8	3828	17.4	-0.58339917566627
8	3863	17.5	-0.57108914013952
8	3874	17.6	1.5603158989688
8	3942	17.7	-2.0614655601094
8	3977	17.8	0.65836659865454
8	3988	17.9	-0.59238915971946
8	4056	18	0.94004314159974
8	4091	18.1	-0.32112183631398
8	4102	18.2	0.34386968356557
8	4170	18.3	-1.092302253237
8	4205	18.4	1.6929969144985
8	4216	18.5	-1.6880141355796
8	4284	18.6	1.4493550115731
8	4319	18.7	0.81156905565877
8	4330	18.8	-1.0634904674953
8	4398	18.9	-0.63606979383621
8	4433	19	0.49117709335405
8	4444	19.1	0.63491697132122
8	4512	19.2	-0.21062642103061
8	4547	19.3	-0.39514794596471
8	4558	19.4	0.79514318087604
8	4626	19.5	-1.2314253288787
8	4661	19.6	1.1495155410375
8	4672	19.7	-1.4015531307086
8	4740	19.8	1.1754642968299
8	4775	19.9	-1.0689512739191
8	4786	20	-0.33988568407949
8	4854	20.1	1.6886741598137
8	4890	20.2	-1.3928044732893
8	4903	20.3	-0.066457409411669
8	4985	20.4	-0.0014769803965464
8	5022	20.5	-0.53170491708443
8	5035	20.6	0.71168269205373
8	5111	20.7	-0.63066502858419
8	5148	20.8	-0.13700028939638
8	5176	20.9	2.3009354202077
8	5252	21	-1.8089672189672
8	5289	21.1	-0.43507001071703
8	5317	21.2	1.1732547945576
8	5393	21.3	-0.34544923924841
8	5430	21.4	-0.53525535564404
8	5458	21.5	2.0782830525422
8	5534	21.6	-1.9179744808935
8	5571	21.7	0.70758820394985
8	5599	21.8	0.21724806516431
8	5675	21.9	0.5516105692368
8	5712	22	-1.9771293993108
8	5740	22.1	0.019450458348729
8	5816	22.2	1.4038676873315
8	5853	22.3	0.8256775571499
8	5881	22.4	-2.1127788507147
8	5957	22.5	0.50154641154222
8	5994	22.6	1.052530844463
8	6022	22.7	0.53744749282487
8	6098	22.8	-0.85636253643315
8	6135	22.9	-1.0710078093689
8	6163	23	1.5110289712902
8	6239	23.1	-0.11364762729499
8	6276	23.2	-0.55748495506123
8	6304	23.3	0.60268441855442
8	6380	23.4	-0.56455804326106
8	6417	23.5	-0.46913794009015
8	6445	23.6	0.039095270913094
8	6521	23.7	0.23439874174073
8	6558	23.8	1.1353360651992
8	6586	23.9	0.22213228337932
8	6662	24	-1.0622150200652
8	6699	24.1	-0.27011160913389
8	6727	24.2	0.25563376140781
8	6803	24.3	-0.086818521958776
8	6840	24.4	-0.34861544612795
8	6868	24.5	0.64196837600321
8	6944	24.6	0.65815835900139
8	6981	24.7	-0.81874771043658
8	7009	24.8	-0.85866759240162
8	7085	24.9	-0.2591648400994
8	7122	25	0.80961821775418
8	7150	25.1	-0.13965987192933
8	7233	25.2	1.5657365613151
8	7272	25.3	-1.2341524864314
8	7308	25.4	1.0148968501016
8	7392	25.5	-0.15040896134451
8	7431	25.6	0.15793588827364
8	7467	25.7	-2.1057214034954
8	7545	25.8	0.48627124866471
8	7599	25.9	0.74589824478608
8	7635	26	-1.0036975116236
8	7713	26.1	0.59045026602689
8	7767	26.2	1.3830293691717
8	7803	26.3	-1.9588678516448
8	7881	26.4	0.47420249204151
8	7935	26.5	0.17420063668396
8	7971	26.6	0.22281744692009
8	8049	26.7	0.29175386414863
8	8103	26.8	-1.142990514636
8	8139	26.9	1.1585424956866
8	8217	27	0.74413803347852
8	8271	27.1	-1.4087094081333
8	8307	27.2	0.34063243481796
8	8385	27.3	-0.60137150576338
8	8439	27.4	0.93766332196537
8	8475	27.5	-0.21480543713551
8	8553	27.6	0.16830906679388
8	8607	27.7	0.6517498078756
8	8643	27.8	-0.92112361220643
8	8721	27.9	0.26067974686157
8	8775	28	-0.61472030531149
8	8811	28.1	0.76680171012413
8	8889	28.2	-0.44882187037729
8	8943	28.3	0.3801576141268
8	8979	28.4	0.37588212813716
8	9057	28.5	-0.36816236679442
8	9111	28.6	0.54232655966189
8	9147	28.7	-1.1997409554897
8	9225	28.8	-0.21082187711727
8	9279	28.9	-0.6604490353493
8	9315	29	-0.048291175044142
8	9393	29.1	1.9101110950578
8	9447	29.2	-0.14370022225194
8	9483	29.3	-1.5375870058779
8	9561	29.4	-0.017048722365871
8	9615	29.5	1.4133012195816
8	9651	29.6	-1.4298507093918
8	9729	29.7	0.97257832589094
8	9783	29.8	-0.044093177421018
8	9819	29.9	-0.3675636718981
8	9897	30	1.0110782127595
8	9952	30.1	-0.9059342002729
8	10016	30.2	1.5263234870508
8	10136	30.3	-0.95353730663192
8	10198	30.4	0.99357683677226
8	10243	30.5	-1.4215716463514
8	10404	30.6	0.47068203391973
8	10466	30.7	-0.4996804415714
8	10505	30.8	0.37018379138317
8	10666	30.9	-0.87543517525774
8	10728	31	1.0193431883818
8	10782	31.1	-0.067996678990312
8	10943	31.2	0.20499562378973
8	11005	31.3	-0.43604363396298
8	11059	31.4	-0.44494118134025
8	11220	31.5	1.6116585349664
8	11282	31.6	-1.3168732548365
8	11336	31.7	0.29097177379299
8	11497	31.8	0.27690858929418
8	11559	31.9	0.22058056551032
8	11613	32	-0.5681730795186
8	11774	32.1	-0.49478580534924
8	11836	32.2	1.6737069084775
8	11890	32.3	-2.4410684569739
8	12051	32.4	1.9479065085761
8	12113	32.5	-0.20908914157189
8	12167	32.6	-1.610546822194
8	12328	32.7	1.9869481929345
8	12390	32.8	-1.7206978367176
8	12450	32.9	1.1745639180299
8	12629	33	0.21299030689988
8	12718	33.1	-1.0788790154038
8	12805	33.2	1.6913993965136
8	13058	33.3	-1.8784870766103
8	13147	33.4	0.47419841983356
8	13234	33.5	-0.88106973329559
8	13480	33.6	1.8107454391429
8	13569	33.7	-1.6263217327651
8	13656	33.8	1.1990562442224
8	13902	33.9	0.80976294178981
8	13991	34	-1.1246386601124
8	14078	34.1	0.97768704930786
8	14331	34.2	0.14611320570111
8	14420	34.3	-1.450791543466
8	14507	34.4	-0.056050965795293
8	14760	34.5	-0.16183793544769
8	14849	34.6	-0.1236518874066
8	14936	34.7	0.096372435800731
8	15189	34.8	0.17894128279295
8	15278	34.9	-0.50372356781736
8	15365	35	-0.22785050328821
8	15588	35.1	2.3479611513903
8	15684	35.2	-1.5357298223535
8	15800	35.3	1.5618122695014
8	16025	35.4	-0.53492003527936
8	16122	35.5	-1.6557349078357
8	16232	35.6	1.1450212076306
8	16457	35.7	0.096559526864439
8	16548	35.8	-1.2069573183544
8	16658	35.9	0.72855409875046
8	16883	36	0.071504355291836
8	16974	36.1	1.1339644057443
8	17084	36.2	-1.219846715685
8	17309	36.3	1.0383310785983
8	17383	36.4	-1.9907258212334
8	17491	36.5	1.3777750625741
8	17696	36.6	-1.1552971281344
8	17770	36.7	-0.25287188065704
8	17878	36.8	1.3349006552016
8	18083	36.9	-1.1387871019542
8	18157	37	0.27055640181061
8	18265	37.1	0.047111466992646
8	18463	37.2	0.79985182499513
8	18537	37.3	0.038199989357963
8	18645	37.4	-0.95054763078224
8	18850	37.5	1.4274702197872
8	18924	37.6	-0.80293093516957
8	19032	37.7	-0.51011996460147
8	19255	37.8	1.3252174662193
8	19335	37.9	0.58677568449639
8	19443	38	-2.0047416345915
8	19666	38.1	0.52292940381449
8	19746	38.2	-0.053680574637838
8	19854	38.3	1.3507342926459
8	20077	38.4	-1.6596530942479
8	20157	38.5	1.4429761026986
8	20265	38.6	-1.9108785584103
8	20488	38.7	1.9379296060652
8	20568	38.8	-1.4266651426442
8	20676	38.9	1.6764188447269
8	20899	39	-1.6443299490493
8	20979	39.1	0.11611688882113
8	21087	39.2	-0.16170822782442
8	21310	39.3	0.94020428427029
8	21390	39.4	-0.84237606730312
8	21498	39.5	-0.37673934013583
8	21721	39.6	-0.2306586591294
8	21801	39.7	2.0771553379018
8	21909	39.8	-0.37665434298106
8	22132	39.9	-0.25548502046149
8	22212	40	0.10642023116816
8	22320	40.1	0.04569535900373
8	22544	40.2	0.020877431379631
8	22626	40.3	-0.13654253561981
8	22748	40.4	-1.3035375165055
8	22973	40.5	0.74524866242427
8	23055	40.6	-0.1497218752047
8	23171	40.7	0.69885703036562
8	23396	40.8	-1.4258862641873
8	23478	40.9	2.0066199399298
8	23609	41	0.048619026783854
8	23834	41.1	-0.61472877394408
8	23916	41.2	-0.43745928269345
7	543	5.2	0.485449505219
7	550	5.3	0.95897179612507
7	572	5.4	1.4036318564094
7	603	5.5	1.8935514017379
7	610	5.6	2.3368720539534
7	632	5.7	2.8104420029043
7	663	5.8	3.1884657584595
7	670	5.9	3.6485288296745
7	692	6	4.1204810051701
7	723	6.1	4.5455966375428
7	730	6.2	5.0081779215959
7	752	6.3	5.4525975752165
7	783	6.4	5.8559753307034
7	790	6.5	6.1303257128582
7	812	6.6	6.5178382154679
7	843	6.7	6.8645723500065
7	850	6.8	7.1389852054542
7	872	6.9	7.6141651175692
7	903	7	7.8717128504193
7	910	7.1	8.2084278423697
7	932	7.2	8.6657004458373
7	963	7.3	9.0761624032873
7	970	7.4	9.3884908685702
7	992	7.5	9.7365332018942
7	1023	7.6	10.155271395006
7	1030	7.7	10.645665038622
7	1052	7.8	10.987096525334
7	1083	7.9	11.247359208018
7	1090	8	11.584161628283
7	1112	8.1	11.925396909018
7	1143	8.2	12.176572017617
7	1150	8.3	12.531109434565
7	1172	8.4	12.927517287562
7	1203	8.5	13.308842911281
7	1210	8.6	13.652965384781
7	1232	8.7	13.815498095623
7	1263	8.8	13.731311919435
7	1270	8.9	13.820699563809
7	1292	9	13.705413629569
7	1323	9.1	13.662607237149
7	1330	9.2	13.734368282987
7	1352	9.3	13.896607089532
7	1383	9.4	13.744288476685
7	1390	9.5	13.731585092237
7	1412	9.6	13.657013750263
7	1443	9.7	13.680451632862
7	1450	9.8	13.772593907057
7	1472	9.9	13.88607132677
7	1503	10	13.787210196524
7	1510	10.1	13.895003081916
7	1539	10.2	13.789572269632
7	1578	10.3	13.869950858853
7	1587	10.4	13.779776615941
7	1617	10.5	13.820504206675
7	1656	10.6	13.670441131783
7	1665	10.7	13.726881970163
7	1710	10.8	13.683724359004
7	1743	10.9	13.769187986769
7	1752	11	13.669710597
7	1797	11.1	13.667675950541
7	1830	11.2	13.897660824563
7	1839	11.3	13.867050534498
7	1884	11.4	13.689653469459
7	1917	11.5	13.854202159133
7	1926	11.6	13.76179462896
7	1971	11.7	13.692764992919
7	2004	11.8	13.863389559183
7	2013	11.9	13.832498007838
7	2058	12	13.82788089189
7	2091	12.1	13.837811715063
7	2100	12.2	13.800975430442
7	2145	12.3	13.756937024626
7	2178	12.4	13.677111392294
7	2187	12.5	13.788218655367
7	2232	12.6	13.655357269023
7	2265	12.7	13.825640762085
7	2274	12.8	13.797044964542
7	2319	12.9	13.679724199791
7	2352	13	13.821695416968
7	2361	13.1	13.726867102121
7	2406	13.2	13.735082896461
7	2439	13.3	13.660979090061
7	2448	13.4	13.801282676961
7	2493	13.5	13.748401695781
7	2526	13.6	13.782466952899
7	2535	13.7	13.734956615407
7	2580	13.8	13.804134443495
7	2613	13.9	13.792807825352
7	2622	14	13.874284160009
7	2667	14.1	13.757508772111
7	2700	14.2	13.762045936228
7	2709	14.3	13.736699796142
7	2754	14.4	13.819750689063
7	2787	14.5	13.675863350427
7	2796	14.6	13.875685018348
7	2841	14.7	13.67701916045
7	2874	14.8	13.765744370676
7	2883	14.9	13.874943278357
7	2928	15	13.811922084866
7	2961	15.1	13.650288249284
7	2971	15.2	13.673838063935
7	3030	15.3	13.77292113743
7	3065	15.4	13.705237245455
7	3076	15.5	13.797150818899
7	3144	15.6	13.891694403405
7	3179	15.7	13.80667731181
7	3190	15.8	13.887352971802
7	3258	15.9	13.895843007637
7	3293	16	13.708772075514
7	3304	16.1	13.712500188069
7	3372	16.2	13.777612764481
7	3407	16.3	13.855127433001
7	3418	16.4	13.784137255955
7	3486	16.5	13.663970062253
7	3521	16.6	13.750836146798
7	3532	16.7	13.774993426551
7	3600	16.8	13.725225480599
7	3635	16.9	13.833184366499
7	3646	17	13.683929639379
7	3714	17.1	13.658877558575
7	3749	17.2	13.846902374504
7	3760	17.3	13.845312658034
7	3828	17.4	13.786972740467
7	3863	17.5	13.729863826453
7	3874	17.6	13.88589541635
7	3942	17.7	13.679748860339
7	3977	17.8	13.745585520205
7	3988	17.9	13.686346604233
7	4056	18	13.780350918393
7	4091	18.1	13.748238734761
7	4102	18.2	13.782625703118
7	4170	18.3	13.673395477794
7	4205	18.4	13.842695169244
7	4216	18.5	13.673893755686
7	4284	18.6	13.818829256843
7	4319	18.7	13.899986162409
7	4330	18.8	13.79363711566
7	4398	18.9	13.730030136276
7	4433	19	13.779147845611
7	4444	19.1	13.842639542744
7	4512	19.2	13.821576900641
7	4547	19.3	13.782062106044
7	4558	19.4	13.861576424132
7	4626	19.5	13.738433891244
7	4661	19.6	13.853385445348
7	4672	19.7	13.713230132277
7	4740	19.8	13.83077656196
7	4775	19.9	13.723881434568
7	4786	20	13.68989286616
7	4854	20.1	13.858760282141
7	4890	20.2	13.719479834812
7	4903	20.3	13.712834093871
7	4985	20.4	13.712686395831
7	5022	20.5	13.659515904123
7	5035	20.6	13.730684173328
7	5111	20.7	13.66761767047
7	5148	20.8	13.65391764153
7	5176	20.9	13.884011183551
7	5252	21	13.703114461654
7	5289	21.1	13.659607460583
7	5317	21.2	13.776932940038
7	5393	21.3	13.742388016114
7	5430	21.4	13.688862480549
7	5458	21.5	13.896690785803
7	5534	21.6	13.704893337714
7	5571	21.7	13.775652158109
7	5599	21.8	13.797376964625
7	5675	21.9	13.852538021549
7	5712	22	13.654825081618
7	5740	22.1	13.656770127453
7	5816	22.2	13.797156896186
7	5853	22.3	13.879724651901
7	5881	22.4	13.66844676683
7	5957	22.5	13.718601407984
7	5994	22.6	13.82385449243
7	6022	22.7	13.877599241713
7	6098	22.8	13.791962988069
7	6135	22.9	13.684862207132
7	6163	23	13.835965104261
7	6239	23.1	13.824600341532
7	6276	23.2	13.768851846026
7	6304	23.3	13.829120287881
7	6380	23.4	13.772664483555
7	6417	23.5	13.725750689546
7	6445	23.6	13.729660216637
7	6521	23.7	13.753100090811
7	6558	23.8	13.866633697331
7	6586	23.9	13.888846925669
7	6662	24	13.782625423663
7	6699	24.1	13.755614262749
7	6727	24.2	13.78117763889
7	6803	24.3	13.772495786694
7	6840	24.4	13.737634242082
7	6868	24.5	13.801831079682
7	6944	24.6	13.867646915582
7	6981	24.7	13.785772144538
7	7009	24.8	13.699905385298
7	7085	24.9	13.673988901288
7	7122	25	13.754950723064
7	7150	25.1	13.740984735871
7	7233	25.2	13.897558392002
7	7272	25.3	13.774143143359
7	7308	25.4	13.875632828369
7	7392	25.5	13.860591932235
7	7431	25.6	13.876385521062
7	7467	25.7	13.665813380713
7	7545	25.8	13.714440505579
7	7599	25.9	13.789030330058
7	7635	26	13.688660578895
7	7713	26.1	13.747705605498
7	7767	26.2	13.886008542415
7	7803	26.3	13.690121757251
7	7881	26.4	13.737542006455
7	7935	26.5	13.754962070123
7	7971	26.6	13.777243814815
7	8049	26.7	13.80641920123
7	8103	26.8	13.692120149767
7	8139	26.9	13.807974399335
7	8217	27	13.882388202683
7	8271	27.1	13.74151726187
7	8307	27.2	13.775580505352
7	8385	27.3	13.715443354775
7	8439	27.4	13.809209686972
7	8475	27.5	13.787729143258
7	8553	27.6	13.804560049938
7	8607	27.7	13.869735030725
7	8643	27.8	13.777622669504
7	8721	27.9	13.803690644191
7	8775	28	13.742218613659
7	8811	28.1	13.818898784672
7	8889	28.2	13.774016597634
7	8943	28.3	13.812032359047
7	8979	28.4	13.849620571861
7	9057	28.5	13.812804335181
7	9111	28.6	13.867036991147
7	9147	28.7	13.747062895598
7	9225	28.8	13.725980707887
7	9279	28.9	13.659935804352
7	9315	29	13.655106686847
7	9393	29.1	13.846117796353
7	9447	29.2	13.831747774128
7	9483	29.3	13.67798907354
7	9561	29.4	13.676284201303
7	9615	29.5	13.817614323262
7	9651	29.6	13.674629252322
7	9729	29.7	13.771887084912
7	9783	29.8	13.767477767169
7	9819	29.9	13.73072139998
7	9897	30	13.831829221256
7	9952	30.1	13.741235801228
7	10016	30.2	13.893868149933
7	10136	30.3	13.79851441927
7	10198	30.4	13.897872102947
7	10243	30.5	13.755714938312
7	10404	30.6	13.802783141704
7	10466	30.7	13.752815097547
7	10505	30.8	13.789833476685
7	10666	30.9	13.70228995916
7	10728	31	13.804224277998
7	10782	31.1	13.797424610099
7	10943	31.2	13.817924172478
7	11005	31.3	13.774319809081
7	11059	31.4	13.729825690947
7	11220	31.5	13.890991544444
7	11282	31.6	13.75930421896
7	11336	31.7	13.78840139634
7	11497	31.8	13.816092255269
7	11559	31.9	13.83815031182
7	11613	32	13.781333003868
7	11774	32.1	13.731854423333
7	11836	32.2	13.899225114181
7	11890	32.3	13.655118268484
7	12051	32.4	13.849908919341
7	12113	32.5	13.829000005184
7	12167	32.6	13.667945322965
7	12328	32.7	13.866640142258
7	12390	32.8	13.694570358586
7	12450	32.9	13.812026750389
7	12629	33	13.833325781079
7	12718	33.1	13.725437879539
7	12805	33.2	13.89457781919
7	13058	33.3	13.706729111529
7	13147	33.4	13.754148953513
7	13234	33.5	13.666041980183
7	13480	33.6	13.847116524098
7	13569	33.7	13.684484350821
7	13656	33.8	13.804389975243
7	13902	33.9	13.885366269422
7	13991	34	13.772902403411
7	14078	34.1	13.870671108342
7	14331	34.2	13.885282428912
7	14420	34.3	13.740203274565
7	14507	34.4	13.734598177986
7	14760	34.5	13.718414384441
7	14849	34.6	13.7060491957
7	14936	34.7	13.71568643928
7	15189	34.8	13.73358056756
7	15278	34.9	13.683208210778
7	15365	35	13.660423160449
7	15588	35.1	13.895219275588
7	15684	35.2	13.741646293353
7	15800	35.3	13.897827520303
7	16025	35.4	13.844335516775
7	16122	35.5	13.678762025991
7	16232	35.6	13.793264146755
7	16457	35.7	13.802920099441
7	16548	35.8	13.682224367606
7	16658	35.9	13.755079777481
7	16883	36	13.76223021301
7	16974	36.1	13.875626653584
7	17084	36.2	13.753641982016
7	17309	36.3	13.857475089876
7	17383	36.4	13.658402507752
7	17491	36.5	13.79618001401
7	17696	36.6	13.680650301196
7	17770	36.7	13.65536311313
7	17878	36.8	13.788853178651
7	18083	36.9	13.674974468455
7	18157	37	13.702030108636
7	18265	37.1	13.706741255336
7	18463	37.2	13.786726437835
7	18537	37.3	13.790546436771
7	18645	37.4	13.695491673693
7	18850	37.5	13.838238695671
7	18924	37.6	13.757945602154
7	19032	37.7	13.706933605694
7	19255	37.8	13.839455352316
7	19335	37.9	13.898132920766
7	19443	38	13.697658757307
7	19666	38.1	13.749951697688
7	19746	38.2	13.744583640224
7	19854	38.3	13.879657069489
7	20077	38.4	13.713691760064
7	20157	38.5	13.857989370334
7	20265	38.6	13.666901514493
7	20488	38.7	13.860694475099
7	20568	38.8	13.718027960835
7	20676	38.9	13.885669845308
7	20899	39	13.721236850403
7	20979	39.1	13.732848539285
7	21087	39.2	13.716677716502
7	21310	39.3	13.810698144929
7	21390	39.4	13.726460538199
7	21498	39.5	13.688786604186
7	21721	39.6	13.665720738273
7	21801	39.7	13.873436272063
7	21909	39.8	13.835770837765
7	22132	39.9	13.810222335719
7	22212	40	13.820864358835
7	22320	40.1	13.825433894736
7	22544	40.2	13.827521637874
7	22626	40.3	13.813867384312
7	22748	40.4	13.683513632661
7	22973	40.5	13.758038498904
7	23055	40.6	13.743066311383
7	23171	40.7	13.81295201442
7	23396	40.8	13.670363388001
7	23478	40.9	13.871025381994
7	23609	41	13.875887284672
7	23834	41.1	13.814414407278
7	23916	41.2	13.770668479009
6	513	5.1	39.95
6	543	5.2	39.95
6	550	5.3	39.998544950522
6	572	5.4	40.094442130134
6	603	5.5	40.234805315775
6	610	5.6	40.424160455949
6	632	5.7	40.657847661344
6	663	5.8	40.938891861635
6	670	5.9	41.257738437481
6	692	6	41.622591320448
6	723	6.1	42.034639420965
6	730	6.2	42.48919908472
6	752	6.3	42.990016876879
6	783	6.4	43.535276634401
6	790	6.5	44.120874167471
6	812	6.6	44.733906738757
6	843	6.7	45.385690560304
6	850	6.8	46.072147795304
6	872	6.9	46.78604631585
6	903	7	47.547462827607
6	910	7.1	48.334634112649
6	932	7.2	49.155476896886
6	963	7.3	50.022046941469
[...]
151	136928	151.8	45.681661765919
151	137025	151.9	46.333832831031
151	137114	152	47.011325206256
151	137215	152.1	47.73072319154
151	137312	152.2	48.493811003648
151	137401	152.3	49.306735313923
151	137502	152.4	50.164390715685
151	137599	152.5	51.04841410554
151	137688	152.6	51.967541050641
151	137803	152.7	52.914168751355
151	137900	152.8	53.886548303714
151	137995	152.9	54.904566248333
151	138110	153	55.968592763089
151	138207	153.1	57.070632681189
151	138302	153.2	58.204679594432
151	138417	153.3	59.379553049429
151	138514	153.4	60.58468561683
151	138609	153.5	61.832783657709
151	138724	153.6	63.121084208573
151	138821	153.7	64.453077505311
151	138916	153.8	65.818597881005
151	139031	153.9	67.187240652049
151	139128	154	68.560392603813
151	139223	154.1	69.927828973948
151	139338	154.2	71.314325875807
151	139435	154.3	72.68770711962
151	139530	154.4	74.076806629486
151	139645	154.5	75.457470010256
151	139742	154.6	76.838955701186
151	139837	154.7	78.218407663372
151	139952	154.8	79.597490429493
151	140049	154.9	80.976380835161
151	140144	155	82.346786226931
151	140259	155.1	83.728514285534
151	140363	155.2	85.118108444144
151	140466	155.3	86.48589413929
151	140569	155.4	87.858508474737
151	140668	155.5	89.247755713883
151	140780	155.6	90.617749434131
151	140883	155.7	91.983085157706
151	140982	155.8	93.368794540221
151	141094	155.9	94.745547624394
151	141197	156	96.135301702306
151	141296	156.1	97.517595647529
151	141408	156.2	98.887988450664
151	141511	156.3	100.26509426249
151	141602	156.4	101.6496874383
151	141712	156.5	103.01728045319
151	141798	156.6	104.38330432845
151	141889	156.7	105.7719447492
151	141999	156.8	107.13893912246
151	142085	156.9	108.5067767284
151	142176	157	109.87517104413
151	142286	157.1	111.24494893019
151	142372	157.2	112.63331414211
151	142463	157.3	114.01924445096
151	142573	157.4	115.39643886471
151	142659	157.5	116.78070925201
151	142750	157.6	118.16161193257
151	142866	157.7	119.55091854354
151	142966	157.8	120.91799099434
151	143057	157.9	122.30674530568
151	143173	158	123.68529199291
151	143273	158.1	125.07487227503
151	143364	158.2	126.44599492382
151	143480	158.3	127.8252090765
151	143580	158.4	129.19093590763
151	143671	158.5	130.55938267455
151	143787	158.6	131.94859904942
151	143887	158.7	133.32025703357
151	143978	158.8	134.70844900459
151	144094	158.9	136.0874078507
151	144194	159	137.47592525227
151	144285	159.1	138.85972683257
151	144401	159.2	140.23407966938
151	144501	159.3	141.60960945593
151	144592	159.4	142.98048812303
151	144708	159.5	144.35166410903
151	144808	159.6	145.72810129502
151	144899	159.7	147.10624716849
151	145015	159.8	148.49586101651
151	145115	159.9	149.88178416616
151	145206	160	151.25141855774
151	145322	160.1	152.64004816212
152	135295	150.2	0.48295805056114
152	135419	150.3	0.93599208126
152	135503	150.4	1.4315519312324
152	135600	150.5	1.9171884633094
152	135724	150.6	2.3612217732228
152	135823	150.7	2.8072623893015
152	135914	150.8	3.1971824039673
152	136038	150.9	3.5666080777652
152	136137	151	3.9052601819451
152	136228	151.1	4.2363834452829
152	136352	151.2	4.6362556217458
152	136451	151.3	4.9733200891163
152	136540	151.4	5.2394854297848
152	136641	151.5	5.4996162176934
152	136738	151.6	5.9019894686747
152	136827	151.7	6.2243420343251
152	136928	151.8	6.5217106511221
152	137025	151.9	6.774923752247
152	137114	152	7.1939798528432
152	137215	152.1	7.6308781210786
152	137312	152.2	8.1292431027499
152	137401	152.3	8.5765540176175
152	137502	152.4	8.8402338985573
152	137599	152.5	9.1912694510059
152	137688	152.6	9.4662770071403
152	137803	152.7	9.7237955235863
152	137900	152.8	10.180179446189
152	137995	152.9	10.640265147561
152	138110	153	11.020399181008
152	138207	153.1	11.340469132421
152	138302	153.2	11.748734549979
152	138417	153.3	12.051325674004
152	138514	153.4	12.480980408796
152	138609	153.5	12.883005508639
152	138724	153.6	13.319932967377
152	138821	153.7	13.655203756945
152	138916	153.8	13.686427710438
152	139031	153.9	13.73151951764
152	139128	154	13.674363701348
152	139223	154.1	13.864969018591
152	139338	154.2	13.733812438126
152	139435	154.3	13.890995098662
152	139530	154.4	13.806633807695
152	139645	154.5	13.814856909309
152	139742	154.6	13.794519621856
152	139837	154.7	13.790827661206
152	139952	154.8	13.788904056686
152	140049	154.9	13.704053917702
152	140144	155	13.817280586029
152	140259	155.1	13.895941586094
152	140363	155.2	13.677856951463
152	140466	155.3	13.726143354469
152	140569	155.4	13.892472391459
152	140668	155.5	13.699937202479
152	140780	155.6	13.65335723575
152	140883	155.7	13.857093825156
152	140982	155.8	13.76753084173
152	141094	155.9	13.897540779121
152	141197	156	13.822939452226
152	141296	156.1	13.703928031353
152	141408	156.2	13.771058118297
152	141511	156.3	13.845931758033
152	141602	156.4	13.675930148957
152	141712	156.5	13.660238752526
152	141798	156.6	13.886404207535
152	141889	156.7	13.669943732652
152	141999	156.8	13.678376059374
152	142085	156.9	13.683943157294
152	142176	157	13.697778860549
152	142286	157.1	13.883652119234
152	142372	157.2	13.859303088486
152	142463	157.3	13.7719441375
152	142573	157.4	13.842703872977
152	142659	157.5	13.809026805661
152	142750	157.6	13.893066109717
152	142866	157.7	13.67072450798
152	142966	157.8	13.887543113355
152	143057	157.9	13.785466872307
152	143173	158	13.895802821184
152	143273	158.1	13.711226487975
152	143364	158.2	13.792141526798
152	143480	158.3	13.657268311223
152	143580	158.4	13.684467669204
152	143671	158.5	13.892163748713
152	143787	158.6	13.716579841485
152	143887	158.7	13.881919710292
152	143978	158.8	13.789588461083
152	144094	158.9	13.885174015688
152	144194	159	13.838015802938
152	144285	159.1	13.743528368103
152	144401	159.2	13.755297865579
152	144501	159.3	13.708786670968
152	144592	159.4	13.711759859964
152	144708	159.5	13.764371859934
152	144808	159.6	13.781458734686
152	144899	159.7	13.896138480201
152	145015	159.8	13.859231496498
152	145115	159.9	13.696343915805
152	145206	160	13.886296043789
152	145322	160.1	13.758542221889
153	135419	150.3	4.5303403069886
153	135503	150.4	4.9555984997238
153	135600	150.5	4.8563653207705
153	135724	150.6	4.4403330991338
153	135823	150.7	4.4604061607864
153	135914	150.8	3.8992001466588
153	136038	150.9	3.694256737979
153	136137	151	3.3865210417988
153	136228	151.1	3.3112326333777
153	136352	151.2	3.9987217646292
153	136451	151.3	3.3706446737051
153	136540	151.4	2.6616534066852
153	136641	151.5	2.6013078790857
153	136738	151.6	4.0237325098133
153	136827	151.7	3.2235256565036
153	136928	151.8	2.9736861679703
153	137025	151.9	2.5321310112486
153	137114	152	4.1905610059621
153	137215	152.1	4.3689826823538
153	137312	152.2	4.9836498167133
153	137401	152.3	4.4731091486756
153	137502	152.4	2.6367988093989
153	137599	152.5	3.5103555244859
153	137688	152.6	2.7500755613437
153	137803	152.7	2.57518516446
153	137900	152.8	4.5638392260298
153	137995	152.9	4.6008570137201
153	138110	153	3.8013403344667
153	138207	153.1	3.2006995141273
153	138302	153.2	4.0826541755814
153	138417	153.3	3.0259112402564
153	138514	153.4	4.2965473479126
153	138609	153.5	4.0202509984374
153	138724	153.6	4.3692745873705
153	138821	153.7	3.3527078956831
153	138916	153.8	0.31223953493319
153	139031	153.9	0.4509180720197
153	139128	154	-0.57155816291925
153	139223	154.1	1.9060531724244
153	139338	154.2	-1.3115658046445
153	139435	154.3	1.5718266053591
153	139530	154.4	-0.84361290966626
153	139645	154.5	0.082231016131118
153	139742	154.6	-0.20337287453003
153	139837	154.7	-0.036919606500305
153	139952	154.8	-0.019236045191064
153	140049	154.9	-0.84850138984621
153	140144	155	1.1322666832712
153	140259	155.1	0.7866100006504
153	140363	155.2	-2.1808463463094
153	140466	155.3	0.48286403005477
153	140569	155.4	1.6632903699065
153	140668	155.5	-1.925351889804
153	140780	155.6	-0.46579966729041
153	140883	155.7	2.0373658940662
153	140982	155.8	-0.89562983426731
153	141094	155.9	1.3000993739115
153	141197	156	-0.74601326894481
153	141296	156.1	-1.1901142087299
153	141408	156.2	0.67130086943507
153	141511	156.3	0.74873639736325
153	141602	156.4	-1.7000160907628
153	141712	156.5	-0.15691396431066
153	141798	156.6	2.2616545500932
153	141889	156.7	-2.1646047488321
153	141999	156.8	0.084323267219588
153	142085	156.9	0.055670979199931
153	142176	157	0.13835703255609
153	142286	157.1	1.858732586843
153	142372	157.2	-0.24349030747544
153	142463	157.3	-0.87358950986527
153	142573	157.4	0.70759735477623
153	142659	157.5	-0.33677067316603
153	142750	157.6	0.84039304056205
153	142866	157.7	-2.2234160173684
153	142966	157.8	2.1681860537501
153	143057	157.9	-1.0207624104805
153	143173	158	1.1033594887704
153	143273	158.1	-1.8457633320941
153	143364	158.2	0.8091503882315
153	143480	158.3	-1.3487321557477
153	143580	158.4	0.27199357980862
153	143671	158.5	2.0769607950933
153	143787	158.6	-1.7558390722843
153	143887	158.7	1.6533986880677
153	143978	158.8	-0.92331249208655
153	144094	158.9	0.9558555460535
153	144194	159	-0.47158212750219
153	144285	159.1	-0.94487434835173
153	144401	159.2	0.11769497476052
153	144501	159.3	-0.46511194610503
153	144592	159.4	0.029731889953837
153	144708	159.5	0.52611999970395
153	144808	159.6	0.1708687475184
153	144899	159.7	1.1467974551488
153	145015	159.8	-0.36906983703375
153	145115	159.9	-1.6288758069277
153	145206	160	1.8995212798472
153	145322	160.1	-1.2775382190011
154	135419	150.3	2.1771554084613
154	135503	150.4	2.8890304618392
154	135600	150.5	3.4469829342217
154	135724	150.6	3.7519127745834
154	135823	150.7	4.2651548991021
154	135914	150.8	4.2716665990736
154	136038	150.9	4.4616521656888
154	136137	151	4.4911760097976
154	136228	151.1	4.7020506344013
154	136352	151.2	5.8107812515254
154	136451	151.3	5.4012305196084
154	136540	151.4	4.7369524468045
154	136641	151.5	4.8384608000988
154	136738	151.6	7.1369783354341
154	136827	151.7	6.2680416962601
154	136928	151.8	6.1240704341722
154	137025	151.9	5.5999027165088
154	137114	152	8.7568129617797
154	137215	152.1	9.553902982811
154	137312	152.2	11.315487775723
154	137401	152.3	10.827702642699
154	137502	152.4	7.2179642261714
154	137599	152.5	9.4008908289143
154	137688	152.6	7.9189635403258
154	137803	152.7	7.6987879438603
154	137900	152.8	12.895583931449
154	137995	152.9	13.532565289224
154	138110	153	11.861307057732
154	138207	153.1	10.53947628345
154	138302	153.2	13.386381596245
154	138417	153.3	10.641407994724
154	138514	153.4	14.815342358911
154	138609	153.5	14.411094884059
154	138724	153.6	15.99669132395
154	138821	153.7	13.037383416998
154	138916	153.8	3.0369666703564
154	139031	153.9	3.503811962771
154	139128	154	0.973
154	139223	154.1	8.3940652824514
154	139338	154.2	0.973
154	139435	154.3	7.2897650153185
154	139530	154.4	0.973
154	139645	154.5	2.2937703490442
154	139742	154.6	1.3418279493799
154	139837	154.7	1.8948584839238
154	139952	154.8	1.9534461301942
154	140049	154.9	0.973
154	140144	155	5.7906451360937
154	140259	155.1	4.6625129262336
154	140363	155.2	0.973
154	140466	155.3	3.6083648053992
154	140569	155.4	7.5967034374843
154	140668	155.5	0.973
154	140780	155.6	0.973
154	140883	155.7	8.8281751846348
154	140982	155.8	0.973
154	141094	155.9	6.3828125452916
154	141197	156	0.973
154	141296	156.1	0.973
154	141408	156.2	4.2435000134045
154	141511	156.3	4.5215740434063
154	141602	156.4	0.973
154	141712	156.5	1.4878671981539
154	141798	156.6	9.5961534034257
154	141889	156.7	0.973
154	141999	156.8	2.2842312513545
154	142085	156.9	2.190411339596
154	142176	157	2.4649433995127
154	142286	157.1	8.2462127111072
154	142372	157.2	1.2112144520478
154	142463	157.3	0.973
154	142573	157.4	4.3834208002445
154	142659	157.5	0.973
154	142750	157.6	4.8417531835615
154	142866	157.7	0.973
154	142966	157.8	9.2840604707135
154	143057	157.9	0.973
154	143173	158	5.7232312120797
154	143273	158.1	0.973
154	143364	158.2	4.7072366552838
154	143480	158.3	0.973
154	143580	158.4	2.9038934711242
154	143671	158.5	8.9815216456157
154	143787	158.6	0.973
154	143887	158.7	7.5583072501375
154	143978	158.8	0.973
154	144094	158.9	5.2257274128958
154	144194	159	0.973
154	144285	159.1	0.973
154	144401	159.2	2.4041442601042
154	144501	159.3	0.973
154	144592	159.4	2.1078562743231
154	144708	159.5	3.7601485463041
154	144808	159.6	2.5841304252956
154	144899	159.7	5.8688270409311
154	145015	159.8	0.973
154	145115	159.9	0.973
154	145206	160	8.3841692083871
154	145322	160.1	0.973
155	140259	155.1	20.05
155	140363	155.2	20.05
155	140466	155.3	20.05
155	140569	155.4	20.05
155	140668	155.5	20.05
155	140780	155.6	20.05
155	140883	155.7	20.05
155	140982	155.8	20.05
155	141094	155.9	20.05
155	141197	156	20.05
155	141296	156.1	20.05
155	141408	156.2	20.05
155	141511	156.3	20.05
155	141602	156.4	20.05
155	141712	156.5	20.05
155	141798	156.6	20.05
155	141889	156.7	20.05
155	141999	156.8	20.05
155	142085	156.9	20.05
155	142176	157	20.05
155	142286	157.1	20.05
155	142372	157.2	20.05
155	142463	157.3	20.05
155	142573	157.4	20.05
155	142659	157.5	20.05
155	142750	157.6	20.05
155	142866	157.7	20.05
155	142966	157.8	20.05
155	143057	157.9	20.05
155	143173	158	20.05
155	143273	158.1	20.05
155	143364	158.2	20.05
155	143480	158.3	20.05
155	143580	158.4	20.05
155	143671	158.5	20.05
155	143787	158.6	20.05
155	143887	158.7	20.05
155	143978	158.8	20.05
155	144094	158.9	20.05
155	144194	159	20.05
155	144285	159.1	20.05
155	144401	159.2	20.05
155	144501	159.3	20.05
155	144592	159.4	20.05
155	144708	159.5	20.05
155	144808	159.6	20.05
155	144899	159.7	20.05
155	145015	159.8	20.05
155	145115	159.9	20.05
155	145206	160	20.05
155	145322	160.1	20.05
156	140259	155.1	39.95
156	140363	155.2	39.95
156	140466	155.3	39.99835706702
156	140569	155.4	40.093282774274
156	140668	155.5	40.236026628901
156	140780	155.6	40.4199704126
156	140883	155.7	40.646884898414
156	140982	155.8	40.918778143319
156	141094	155.9	41.227699241655
156	141197	156	41.57290657838
156	141296	156.1	41.959262053867
156	141408	156.2	42.38995809049
156	141511	156.3	42.858581709199
156	141602	156.4	43.3684997886
156	141712	156.5	43.911137621939
156	141798	156.6	44.496305058524
156	141889	156.7	45.115827345764
156	141999	156.8	45.773159077532
156	142085	156.9	46.457620754883
156	142176	157	47.177177697481
156	142286	157.1	47.923364146246
156	142372	157.2	48.711040157508
156	142463	157.3	49.53741464661
156	142573	157.4	50.411443018039
156	142659	157.5	51.311745118986
156	142750	157.6	52.251919487788
156	142866	157.7	53.224722765541
156	142966	157.8	54.23641171328
156	143057	157.9	55.288330880988
156	143173	158	56.371506106244
156	143273	158.1	57.491576472961
156	143364	158.2	58.65730060575
156	143480	158.3	59.848506865372
156	143580	158.4	61.072766912675
156	143671	158.5	62.322856806081
156	143787	158.6	63.607846416824
156	143887	158.7	64.934078361755
156	143978	158.8	66.293252585008
156	144094	158.9	67.679454677847
156	144194	159	69.063395220916
156	144285	159.1	70.440583083167
156	144401	159.2	71.820301997973
156	144501	159.3	73.210278315232
156	144592	159.4	74.586196824738
156	144708	159.5	75.954210827705
156	144808	159.6	77.334381408337
156	144899	159.7	78.722538588217
156	145015	159.8	80.111291276635
156	145115	159.9	81.485981632692
156	145206	160	82.863162085765
156	145322	160.1	84.234839623957
157	140363	155.2	0.48357067019679
157	140466	155.3	0.94925707254142
157	140569	155.4	1.4274385462678
157	140668	155.5	1.8394378369924
157	140780	155.6	2.2691448581378
157	140883	155.7	2.7189324490571
157	140982	155.8	3.0892109833546
157	141094	155.9	3.452073367256
157	141197	156	3.8635547548653
157	141296	156.1	4.3069603662301
157	141408	156.2	4.6862361870938
157	141511	156.3	5.0991807940066
157	141602	156.4	5.4263783333939
157	141712	156.5	5.8516743658459
157	141798	156.6	6.1952228724024
157	141889	156.7	6.5733173176762
157	141999	156.8	6.8446167735149
157	142085	156.9	7.1955694259726
157	142176	157	7.4618644876521
157	142286	157.1	7.8767601126222
157	142372	157.2	8.2637448910157
157	142463	157.3	8.7402837142929
157	142573	157.4	9.0030210094758
157	142659	157.5	9.4017436880152
157	142750	157.6	9.7280327775282
157	142866	157.7	10.116889477393
157	142966	157.8	10.519191677077
157	143057	157.9	10.831752252567
157	143173	158	11.200703667162
157	143273	158.1	11.657241327898
157	143364	158.2	11.912062596215
157	143480	158.3	12.242600473028
157	143580	158.4	12.500898934062
157	143671	158.5	12.849896107428
157	143787	158.6	13.262319449312
157	143887	158.7	13.591742232535
157	143978	158.8	13.862020928389
157	144094	158.9	13.83940543069
157	144194	159	13.771878622507
157	144285	159.1	13.797189148061
157	144401	159.2	13.899763172586
157	144501	159.3	13.759185095062
157	144592	159.4	13.680140029674
157	144708	159.5	13.801705806318
157	144808	159.6	13.881571798795
157	144899	159.7	13.887526884186
157	145015	159.8	13.746903560567
157	145115	159.9	13.771804530732
157	145206	160	13.716775381914
157	145322	160.1	13.70242848926
158	140466	155.3	4.6568640234464
158	140569	155.4	4.7818147372641
158	140668	155.5	4.1199929072461
158	140780	155.6	4.2970702114533
158	140883	155.7	4.4978759091933
158	140982	155.8	3.7027853429752
158	141094	155.9	3.6286238390133
158	141197	156	4.1148138760933
158	141296	156.1	4.4340561136485
158	141408	156.2	3.7927582086366
158	141511	156.3	4.1294460691279
158	141602	156.4	3.2719753938727
158	141712	156.5	4.2529603245202
158	141798	156.6	3.4354850655654
158	141889	156.7	3.7809444527375
158	141999	156.8	2.7129945583874
158	142085	156.9	3.5095265245764
158	142176	157	2.6629506167956
158	142286	157.1	4.1489562497009
158	142372	157.2	3.8698477839353
158	142463	157.3	4.7653882327722
158	142573	157.4	2.6273729518289
158	142659	157.5	3.9872267853934
158	142750	157.6	3.2628908951301
158	142866	157.7	3.8885669986485
158	142966	157.8	4.0230219968362
158	143057	157.9	3.1256057549035
158	143173	158	3.6895141459536
158	143273	158.1	4.5653766073519
158	143364	158.2	2.5482126831776
158	143480	158.3	3.3053787681274
158	143580	158.4	2.5829846103443
158	143671	158.5	3.4899717336521
158	143787	158.6	4.1242334188428
158	143887	158.7	3.2942278322298
158	143978	158.8	2.7027869585445
158	144094	158.9	-0.22615497699007
158	144194	159	-0.67526808183175
158	144285	159.1	0.25310525554232
158	144401	159.2	1.0257402452407
158	144501	159.3	-1.4057807752397
158	144592	159.4	-0.79045065387618
158	144708	159.5	1.2156577664427
158	144808	159.6	0.79865992476698
158	144899	159.7	0.059550853911787
158	145015	159.8	-1.4062332361937
158	145115	159.9	0.24900970165618
158	145206	160	-0.55029148817994
158	145322	160.1	-0.1434689265443
159	140466	155.3	2.221226406388
159	140569	155.4	2.8241332705963
159	140668	155.5	3.025720901414
159	140780	155.6	3.5704555115174
159	140883	155.7	4.1903085168757
159	140982	155.8	4.0184700840099
159	141094	155.9	4.299160721464
159	141197	156	5.133077410195
159	141296	156.1	5.9275985104384
159	141408	156.2	5.6290474159442
159	141511	156.3	6.4429196207855
159	141602	156.4	5.6654783618316
159	141712	156.5	7.4085473353473
159	141798	156.6	6.5601697259994
159	141889	156.7	7.4429913543811
159	141999	156.8	5.9450340464071
159	142085	156.9	7.577513951595
159	142176	157	6.2971501787352
159	142286	157.1	9.4110807966888
159	142372	157.2	9.2678187345178
159	142463	157.3	11.631165669237
159	142573	157.4	7.3124026019045
159	142659	157.5	10.674650349373
159	142750	157.6	9.3140289101309
159	142866	157.7	11.174683891956
159	142966	157.8	11.923837789344
159	143057	157.9	9.9091686409069
159	143173	158	11.739494348397
159	143273	158.1	14.644631256444
159	143364	158.2	9.1562119078637
159	143480	158.3	11.622502454591
159	143580	158.4	9.6753105180395
159	143671	158.5	12.73371755127
159	143787	158.6	15.147219448708
159	143887	158.7	12.788222851503
159	143978	158.8	11.054097846878
159	144094	158.9	1.268182995679
159	144194	159	0.973
159	144285	159.1	2.859812433275
159	144401	159.2	5.4646750729194
159	144501	159.3	0.973
159	144592	159.4	0.973
159	144708	159.5	6.0621970317429
159	144808	159.6	4.6986399343044
159	144899	159.7	2.2266718856688
159	145015	159.8	0.973
159	145115	159.9	2.842109557041
159	145206	160	0.973
159	145322	160.1	1.5348948804494
160	145322	160.1	20.05
161	145322	160.1	39.95

