version 2
run Lamda_5-0-20200718-23:39:10-10968
attr configname Lamda_5
attr datetime 20200718-23:39:10
attr experiment Lamda_5
attr inifile omnetpp.ini
attr iterationvars ""
attr iterationvarsf ""
attr measurement ""
attr network RSUExampleScenario
attr processid 10968
attr repetition 0
attr replication #0
attr resultdir results
attr runnumber 0
attr seedset 0
param *.manager.launchConfig "xmldoc(\"CAN2Mapd6.launchd.xml\")"
param *.node[*].appl.lambda 5
param *.manager.seed 0
param **.debug false
param **.coreDebug false
param *.playgroundSizeX 1000m
param *.playgroundSizeY 1000m
param *.playgroundSizeZ 50m
param *.annotations.draw true
param *.obstacles.debug false
param *.obstacles.obstacles "xmldoc(\"config.xml\", \"//AnalogueModel[@type='SimpleObstacleShadowing']/obstacles\")"
param *.manager.updateInterval 0.1s
param *.manager.host "\"localhost\""
param *.manager.port 9999
param *.manager.autoShutdown true
param *.rsu[0].mobility.x 125
param *.rsu[0].mobility.y 500
param *.rsu[0].mobility.z 0
param *.rsu[*].applType "\"TraCIDemoRSU11p\""
param *.rsu[*].appl.headerLength "80 bit"
param *.rsu[*].appl.sendBeacons true
param *.rsu[*].appl.dataOnSch true
param *.rsu[*].appl.beaconInterval 1s
param *.rsu[*].appl.beaconUserPriority 7
param *.rsu[*].appl.dataUserPriority 5
param *.connectionManager.sendDirect true
param *.connectionManager.maxInterfDist 300m
param *.connectionManager.drawMaxIntfDist true
param *.**.nic.mac1609_4.useServiceChannel true
param *.**.nic.mac1609_4.txPower 20mW
param *.**.nic.mac1609_4.bitrate 6Mbps
param *.**.nic.phy80211p.sensitivity -89dBm
param *.**.nic.phy80211p.useThermalNoise true
param *.**.nic.phy80211p.thermalNoise -110dBm
param *.**.nic.phy80211p.decider "xmldoc(\"config.xml\")"
param *.**.nic.phy80211p.analogueModels "xmldoc(\"config.xml\")"
param *.**.nic.phy80211p.usePropagationDelay true
param *.**.nic.phy80211p.antenna "xmldoc(\"antenna.xml\", \"/root/Antenna[@id='monopole']\")"
param *.node[*].applType "\"TraCIDemo11p\""
param *.node[*].appl.headerLength "80 bit"
param *.node[*].appl.sendBeacons true
param *.node[*].appl.dataOnSch true
param *.node[*].appl.beaconInterval 1s
param *.node[*].appl.maxt2cThresh 2.5
param *.node[*].appl.mint2cThresh 0.5
param *.node[*].appl.maximumAcceleration 5.0
param *.node[*].appl.emergentManeuverTime 3.0
param *.node[*].appl.singleClusterFormationPeriod 12.0
param *.node[*3].appl.tesVeh false
param *.node[*].veinsmobilityType.debug true
param *.node[*].veinsmobility.x 0
param *.node[*].veinsmobility.y 0
param *.node[*].veinsmobility.z 1.895

vector 0 RSUExampleScenario.node[0].veinsmobility posx ETV
vector 1 RSUExampleScenario.node[0].veinsmobility posy ETV
vector 2 RSUExampleScenario.node[0].veinsmobility speed ETV
vector 3 RSUExampleScenario.node[0].veinsmobility acceleration ETV
vector 4 RSUExampleScenario.node[0].veinsmobility co2emission ETV
vector 5 RSUExampleScenario.node[1].veinsmobility posx ETV
vector 6 RSUExampleScenario.node[1].veinsmobility posy ETV
vector 7 RSUExampleScenario.node[1].veinsmobility speed ETV
vector 8 RSUExampleScenario.node[1].veinsmobility acceleration ETV
vector 9 RSUExampleScenario.node[1].veinsmobility co2emission ETV
vector 10 RSUExampleScenario.node[2].veinsmobility posx ETV
vector 11 RSUExampleScenario.node[2].veinsmobility posy ETV
vector 12 RSUExampleScenario.node[2].veinsmobility speed ETV
vector 13 RSUExampleScenario.node[2].veinsmobility acceleration ETV
vector 14 RSUExampleScenario.node[2].veinsmobility co2emission ETV
vector 15 RSUExampleScenario.node[3].veinsmobility posx ETV
vector 16 RSUExampleScenario.node[3].veinsmobility posy ETV
vector 17 RSUExampleScenario.node[3].veinsmobility speed ETV
vector 18 RSUExampleScenario.node[3].veinsmobility acceleration ETV
vector 19 RSUExampleScenario.node[3].veinsmobility co2emission ETV
vector 20 RSUExampleScenario.node[4].veinsmobility posx ETV
vector 21 RSUExampleScenario.node[4].veinsmobility posy ETV
vector 22 RSUExampleScenario.node[4].veinsmobility speed ETV
vector 23 RSUExampleScenario.node[4].veinsmobility acceleration ETV
vector 24 RSUExampleScenario.node[4].veinsmobility co2emission ETV
vector 25 RSUExampleScenario.node[5].veinsmobility posx ETV
vector 26 RSUExampleScenario.node[5].veinsmobility posy ETV
vector 27 RSUExampleScenario.node[5].veinsmobility speed ETV
vector 28 RSUExampleScenario.node[5].veinsmobility acceleration ETV
vector 29 RSUExampleScenario.node[5].veinsmobility co2emission ETV
vector 30 RSUExampleScenario.node[6].veinsmobility posx ETV
vector 31 RSUExampleScenario.node[6].veinsmobility posy ETV
vector 32 RSUExampleScenario.node[6].veinsmobility speed ETV
vector 33 RSUExampleScenario.node[6].veinsmobility acceleration ETV
vector 34 RSUExampleScenario.node[6].veinsmobility co2emission ETV
vector 35 RSUExampleScenario.node[7].veinsmobility posx ETV
vector 36 RSUExampleScenario.node[7].veinsmobility posy ETV
vector 37 RSUExampleScenario.node[7].veinsmobility speed ETV
vector 38 RSUExampleScenario.node[7].veinsmobility acceleration ETV
vector 39 RSUExampleScenario.node[7].veinsmobility co2emission ETV
vector 40 RSUExampleScenario.node[8].veinsmobility posx ETV
vector 41 RSUExampleScenario.node[8].veinsmobility posy ETV
vector 42 RSUExampleScenario.node[8].veinsmobility speed ETV
vector 43 RSUExampleScenario.node[8].veinsmobility acceleration ETV
vector 44 RSUExampleScenario.node[8].veinsmobility co2emission ETV
vector 45 RSUExampleScenario.node[9].veinsmobility posx ETV
vector 46 RSUExampleScenario.node[9].veinsmobility posy ETV
vector 47 RSUExampleScenario.node[9].veinsmobility speed ETV
vector 48 RSUExampleScenario.node[9].veinsmobility acceleration ETV
vector 49 RSUExampleScenario.node[9].veinsmobility co2emission ETV
vector 50 RSUExampleScenario.node[10].veinsmobility posx ETV
vector 51 RSUExampleScenario.node[10].veinsmobility posy ETV
vector 52 RSUExampleScenario.node[10].veinsmobility speed ETV
vector 53 RSUExampleScenario.node[10].veinsmobility acceleration ETV
vector 54 RSUExampleScenario.node[10].veinsmobility co2emission ETV
vector 55 RSUExampleScenario.node[11].veinsmobility posx ETV
vector 56 RSUExampleScenario.node[11].veinsmobility posy ETV
vector 57 RSUExampleScenario.node[11].veinsmobility speed ETV
vector 58 RSUExampleScenario.node[11].veinsmobility acceleration ETV
vector 59 RSUExampleScenario.node[11].veinsmobility co2emission ETV
vector 60 RSUExampleScenario.node[12].veinsmobility posx ETV
vector 61 RSUExampleScenario.node[12].veinsmobility posy ETV
vector 62 RSUExampleScenario.node[12].veinsmobility speed ETV
vector 63 RSUExampleScenario.node[12].veinsmobility acceleration ETV
vector 64 RSUExampleScenario.node[12].veinsmobility co2emission ETV
vector 65 RSUExampleScenario.node[13].veinsmobility posx ETV
vector 66 RSUExampleScenario.node[13].veinsmobility posy ETV
vector 67 RSUExampleScenario.node[13].veinsmobility speed ETV
vector 68 RSUExampleScenario.node[13].veinsmobility acceleration ETV
vector 69 RSUExampleScenario.node[13].veinsmobility co2emission ETV
vector 70 RSUExampleScenario.node[14].veinsmobility posx ETV
vector 71 RSUExampleScenario.node[14].veinsmobility posy ETV
vector 72 RSUExampleScenario.node[14].veinsmobility speed ETV
vector 73 RSUExampleScenario.node[14].veinsmobility acceleration ETV
vector 74 RSUExampleScenario.node[14].veinsmobility co2emission ETV
vector 75 RSUExampleScenario.node[15].veinsmobility posx ETV
vector 76 RSUExampleScenario.node[15].veinsmobility posy ETV
vector 77 RSUExampleScenario.node[15].veinsmobility speed ETV
vector 78 RSUExampleScenario.node[15].veinsmobility acceleration ETV
vector 79 RSUExampleScenario.node[15].veinsmobility co2emission ETV
vector 80 RSUExampleScenario.node[16].veinsmobility posx ETV
vector 81 RSUExampleScenario.node[16].veinsmobility posy ETV
vector 82 RSUExampleScenario.node[16].veinsmobility speed ETV
vector 83 RSUExampleScenario.node[16].veinsmobility acceleration ETV
vector 84 RSUExampleScenario.node[16].veinsmobility co2emission ETV
vector 85 RSUExampleScenario.node[17].veinsmobility posx ETV
vector 86 RSUExampleScenario.node[17].veinsmobility posy ETV
vector 87 RSUExampleScenario.node[17].veinsmobility speed ETV
vector 88 RSUExampleScenario.node[17].veinsmobility acceleration ETV
vector 89 RSUExampleScenario.node[17].veinsmobility co2emission ETV
vector 90 RSUExampleScenario.node[18].veinsmobility posx ETV
vector 91 RSUExampleScenario.node[18].veinsmobility posy ETV
vector 92 RSUExampleScenario.node[18].veinsmobility speed ETV
vector 93 RSUExampleScenario.node[18].veinsmobility acceleration ETV
vector 94 RSUExampleScenario.node[18].veinsmobility co2emission ETV
vector 95 RSUExampleScenario.node[19].veinsmobility posx ETV
vector 96 RSUExampleScenario.node[19].veinsmobility posy ETV
vector 97 RSUExampleScenario.node[19].veinsmobility speed ETV
vector 98 RSUExampleScenario.node[19].veinsmobility acceleration ETV
vector 99 RSUExampleScenario.node[19].veinsmobility co2emission ETV
vector 100 RSUExampleScenario.node[20].veinsmobility posx ETV
vector 101 RSUExampleScenario.node[20].veinsmobility posy ETV
vector 102 RSUExampleScenario.node[20].veinsmobility speed ETV
vector 103 RSUExampleScenario.node[20].veinsmobility acceleration ETV
vector 104 RSUExampleScenario.node[20].veinsmobility co2emission ETV
vector 105 RSUExampleScenario.node[21].veinsmobility posx ETV
vector 106 RSUExampleScenario.node[21].veinsmobility posy ETV
vector 107 RSUExampleScenario.node[21].veinsmobility speed ETV
vector 108 RSUExampleScenario.node[21].veinsmobility acceleration ETV
vector 109 RSUExampleScenario.node[21].veinsmobility co2emission ETV
4	12	0.3	2.2420559101067
4	17	0.4	2.6945680782324
4	22	0.5	3.0435430686703
4	27	0.6	3.5558119895565
4	41	0.7	3.6648968244183
4	46	0.8	4.3078389920243
4	51	0.9	4.1424682738883
4	74	1	5.1395834398293
4	79	1.1	5.002122431678
4	84	1.2	5.146353587138
4	107	1.3	6.1638293588069
4	112	1.4	6.3949938485477
4	117	1.5	7.3051722849768
4	140	1.6	5.4467860409437
4	145	1.7	9.0777369147956
4	151	1.8	5.6951606816073
4	182	1.9	8.4818229016315
4	189	2	6.9550273030823
4	196	2.1	8.4892680787261
4	227	2.2	8.6366704881339
4	234	2.3	7.0608973387328
4	241	2.4	12.018125210961
4	272	2.5	12.516705408458
4	279	2.6	13.524187913682
4	286	2.7	8.8912812363666
4	332	2.8	9.4754174386502
4	339	2.9	9.1076729767062
4	346	3	8.5782486239763
4	392	3.1	10.016816655707
4	399	3.2	12.718453609261
4	406	3.3	10.710451478614
4	452	3.4	16.096184739255
4	460	3.5	12.469799057707
4	469	3.6	13.62180593563
4	529	3.7	14.1109308479
4	538	3.8	8.0308845235541
4	547	3.9	0.973
4	607	4	6.6753993341482
4	637	4.1	3.6837879620399
4	646	4.2	0.973
4	706	4.3	0.973
4	736	4.4	0.973
4	745	4.5	6.5383522610206
4	805	4.6	0.973
4	835	4.7	9.0720300703396
4	844	4.8	0.973
4	904	4.9	5.7172402819192
4	934	5	0.973
4	943	5.1	5.2390290366578
4	1016	5.2	4.7499538132009
4	1054	5.3	0.973
4	1065	5.4	4.6940863334727
4	1139	5.5	2.4548507090468
4	1177	5.6	2.9063218056641
4	1188	5.7	3.1578412783966
4	1262	5.8	2.1938329230311
4	1300	5.9	0.973
4	1338	6	9.8651328285682
4	1412	6.1	0.973
4	1450	6.2	0.973
4	1488	6.3	8.908365347766
4	1562	6.4	2.3272192616872
4	1600	6.5	0.973
4	1638	6.6	6.1567571794444
4	1712	6.7	0.973
4	1757	6.8	7.5593846067592
4	1803	6.9	1.6170961653122
4	1891	7	0.973
4	1937	7.1	7.0381629031416
4	1983	7.2	0.973
4	2071	7.3	5.8969139636115
4	2117	7.4	2.1768331997853
4	2163	7.5	0.973
4	2251	7.6	5.2650183381069
4	2297	7.7	0.973
4	2376	7.8	1.4928797040911
4	2464	7.9	3.610624697284
4	2510	8	4.7912859984884
4	2589	8.1	0.973
4	2677	8.2	2.7142656080242
4	2723	8.3	0.973
4	2802	8.4	6.1487651580705
4	2903	8.5	0.973
4	2957	8.6	1.566887050821
4	3050	8.7	3.9407768045183
4	3152	8.8	0.973
4	3206	8.9	1.3232207542664
4	3338	9	0.973
4	3440	9.1	2.0442221187072
4	3494	9.2	8.6443905213361
4	3626	9.3	0.973
4	3728	9.4	9.0082880454261
4	3782	9.5	0.973
4	3914	9.6	5.683070861589
4	4016	9.7	1.6320576364933
4	4070	9.8	0.973
4	4202	9.9	7.1411481877468
4	4304	10	0.973
4	4358	10.1	6.2351932023936
4	4509	10.2	0.973
4	4625	10.3	0.973
4	4687	10.4	6.5735666862724
4	4884	10.5	0.973
4	5000	10.6	5.8937191451053
4	5062	10.7	0.973
4	5259	10.8	4.6499608193008
4	5375	10.9	0.973
4	5437	11	9.1963342179193
4	5634	11.1	0.973
4	5750	11.2	5.86201920067
4	5812	11.3	1.920039212388
4	6009	11.4	0.973
4	6125	11.5	4.3229892559036
4	6187	11.6	0.973
4	6384	11.7	8.0556799123949
4	6513	11.8	0.973
4	6634	11.9	3.2172467316763
4	6857	12	0.973
4	6987	12.1	3.2256940912625
4	7108	12.2	6.8029264931535
4	7331	12.3	0.973
4	7461	12.4	3.7818589918263
4	7582	12.5	4.6188146274125
4	7805	12.6	0.973
4	7935	12.7	7.0959408452101
4	8056	12.8	0.973
4	8279	12.9	0.973
4	8409	13	7.4224100928058
4	8530	13.1	1.5686368377517
4	8753	13.2	0.973
4	8883	13.3	0.973
4	9004	13.4	8.0810761672635
4	9252	13.5	0.973
4	9396	13.6	3.0936159910153
4	9531	13.7	8.4235948254609
4	9780	13.8	0.973
4	9981	13.9	0.973
4	10116	14	5.2055190635471
4	10365	14.1	0.973
4	10566	14.2	7.1208112285713
4	10701	14.3	0.973
4	10950	14.4	3.0775677648561
4	11151	14.5	2.4992654057346
4	11286	14.6	1.2131021436932
4	11535	14.7	0.973
4	11736	14.8	5.2754250026791
4	11871	14.9	0.973
4	12120	15	5.0649572985012
4	12333	15.1	0.973
4	12481	15.2	5.755994947444
4	12756	15.3	3.7886011401447
4	12989	15.4	2.1307227918783
4	13138	15.5	0.973
4	13413	15.6	2.0464571328799
4	13646	15.7	0.973
4	13795	15.8	6.9910961052805
4	14070	15.9	0.973
4	14303	16	4.2949626521841
4	14452	16.1	4.7936111112726
4	14790	16.2	0.973
4	15023	16.3	1.9139545792227
4	15172	16.4	1.6263294096876
4	15510	16.5	2.5575046228406
4	15755	16.6	2.9051150424685
4	15904	16.7	2.1533086355884
4	16273	16.8	0.973
4	16538	16.9	2.1101529447572
4	16701	17	0.973
4	17071	17.1	2.1606824428076
4	17336	17.2	3.3284430211444
4	17499	17.3	6.8430071411626
4	17869	17.4	0.973
4	18134	17.5	7.9214262173828
4	18366	17.6	1.9705757438823
4	18736	17.7	0.973
4	19001	17.8	4.9339625777497
4	19233	17.9	3.426022094415
4	19603	18	0.973
4	19868	18.1	6.5879483086648
4	20106	18.2	0.973
4	20476	18.3	2.1693628078295
4	20747	18.4	2.2861889147516
4	21004	18.5	3.0319457432095
4	21406	18.6	6.7191898772889
4	21697	18.7	0.973
4	21955	18.8	3.2507722060095
4	22357	18.9	0.973
4	22648	19	8.6375137079788
4	22981	19.1	3.0370231082377
4	23383	19.2	0.973
4	23674	19.3	4.4672704242887
4	24007	19.4	0.973
4	24409	19.5	3.2690208300826
4	24700	19.6	0.973
4	25033	19.7	1.6270816428289
4	25435	19.8	4.53473698422
4	25732	19.9	0.973
4	26065	20	1.3881444754028
4	26473	20.1	3.361367875382
4	26789	20.2	5.7195405474072
4	27229	20.3	0.973
4	27669	20.4	2.9212719780672
4	27986	20.5	2.2275801110843
4	28426	20.6	4.2346664761779
4	28866	20.7	0.973
4	29183	20.8	6.2270420382948
4	29623	20.9	0.973
4	30063	21	7.2525980944766
4	30380	21.1	3.4184788412293
4	30820	21.2	0.973
4	31260	21.3	5.6430045062397
4	31577	21.4	0.973
4	32017	21.5	5.4000215459134
4	32463	21.6	1.3471952002687
4	32786	21.7	0.973
4	33257	21.8	5.6026870943025
4	33822	21.9	2.3182458927911
4	34165	22	0.973
4	34637	22.1	3.5245526749121
4	35202	22.2	5.2990707265745
4	35545	22.3	0.973
4	36017	22.4	1.9902489572279
4	36582	22.5	0.973
4	36925	22.6	5.5243249816818
4	37397	22.7	0.973
4	37962	22.8	4.6218658131504
4	38305	22.9	0.973
4	38777	23	3.8412458629532
4	39348	23.1	2.0879329516759
4	39697	23.2	0.973
4	40169	23.3	1.974061580027
4	40741	23.4	2.4166695249497
4	41208	23.5	5.5619240868026
4	41909	23.6	2.6087071924148
4	42522	23.7	1.4746907536347
4	43078	23.8	0.973
4	44217	23.9	0.973
4	45168	24	8.9762575886673
4	45724	24.1	0.973
4	46828	24.2	0.973
4	47817	24.3	3.1957171781913
4	48373	24.4	6.8368245317116
4	49477	24.5	2.2314394005044
4	50421	24.6	0.973
4	50977	24.7	5.6627753287473
4	52116	24.8	0.973
4	53105	24.9	0.973
4	53667	25	6.0633241169199
4	54760	25.1	4.8447361327335
4	55816	25.2	0.973
4	56398	25.3	5.2579155882635
4	57572	25.4	4.5950436363159
4	58580	25.5	0.973
4	59162	25.6	5.5564787604597
4	60373	25.7	3.0536244687515
4	61430	25.8	4.6426633913664
4	62099	25.9	0.973
4	63310	26	0.973
4	64327	26.1	8.5269418111471
4	64996	26.2	0.973
4	66207	26.3	0.973
4	67224	26.4	7.6168077713764
4	67899	26.5	0.973
4	69067	26.6	4.1031749353992
4	70075	26.7	5.9474644347583
4	70775	26.8	0.973
4	72012	26.9	1.2176369853761
4	73091	27	6.787990423079
4	73885	27.1	1.221018399191
4	75277	27.2	4.3945332702965
4	76504	27.3	0.973
4	77257	27.4	0.973
4	78622	27.5	1.8520888258916
4	80018	27.6	7.643484373641
4	80812	27.7	0.973
4	82175	27.8	8.3375119428745
4	83537	27.9	0.973
4	84331	28	8.7008015440523
4	85740	28.1	1.7723537134724
4	87063	28.2	2.9628499641222
4	87835	28.3	0.973
4	89209	28.4	2.4289632018982
4	90643	28.5	1.1454862162878
4	91438	28.6	5.8187462419093
4	92916	28.7	1.2655061653284
4	94308	28.8	1.5806245203726
4	95196	28.9	5.2201466247643
4	96799	29	0.973
4	98366	29.1	0.973
4	99254	29.2	7.6577482297215
4	100974	29.3	0.973
4	102472	29.4	4.5005439048716
4	103362	29.5	0.973
4	105113	29.6	6.9715343687038
4	106599	29.7	0.973
4	107481	29.8	3.0734945254879
4	109167	29.9	1.6240891674018
4	110711	30	3.4033178700704
4	111609	30.1	0.973
4	113387	30.2	3.2716111275554
4	114943	30.3	4.4200755839511
4	115869	30.4	0.973
4	117677	30.5	0.973
4	119329	30.6	7.2623952974898
4	120254	30.7	3.4085970293141
4	122025	30.8	0.973
4	123688	30.9	6.8229720571476
4	124617	31	0.973
4	126391	31.1	9.8044227953504
4	128117	31.2	0.973
4	129042	31.3	2.4015039235632
4	130930	31.4	6.6695207718192
4	132633	31.5	0.973
4	133565	31.6	0.973
4	135352	31.7	3.4514108964906
4	137107	31.8	0.973
4	138072	31.9	2.2460218184956
4	139934	32	0.973
4	141726	32.1	3.9524526725598
4	142783	32.2	6.1227914431652
4	144689	32.3	0.973
4	146492	32.4	3.0440662418471
4	147552	32.5	1.6001962614
4	149467	32.6	0.973
4	151228	32.7	0.973
4	152284	32.8	3.489021364029
4	154114	32.9	0.973
4	155876	33	2.6835808338982
4	156932	33.1	7.0735296715
4	158679	33.2	0.973
4	160262	33.3	7.8629476274836
4	161257	33.4	0.973
4	163074	33.5	1.8891835420785
4	164762	33.6	4.0668130424856
4	165894	33.7	0.973
4	167914	33.8	0.973
4	169705	33.9	9.1789841561319
4	170791	34	0.973
4	172814	34.1	0.973
4	174701	34.2	2.8784978322342
4	175833	34.3	2.075625394604
4	177818	34.4	5.9049263923062
4	179696	34.5	3.6592347372466
4	180828	34.6	1.6485962300761
4	182796	34.7	3.5479733445861
4	184684	34.8	0.973
4	185777	34.9	0.973
4	187843	35	8.1639394720095
4	189733	35.1	0.973
4	190914	35.2	0.973
4	193035	35.3	0.973
4	195084	35.4	1.7032472649047
4	196218	35.5	2.6959524854867
4	198289	35.6	5.8136280751378
4	200381	35.7	1.799565433397
4	201515	35.8	0.973
4	203487	35.9	8.1496403634365
4	205579	36	0.973
4	206761	36.1	2.3940077165722
4	208748	36.2	7.0504261323632
3	12	0.3	4.7076447059336
3	17	0.4	4.4789687658793
3	22	0.5	4.1958617805312
3	27	0.6	4.2994300789104
3	41	0.7	3.8184071803533
3	46	0.8	4.1455384720677
3	51	0.9	3.4957618313187
3	74	1	4.1737797422545
3	79	1.1	3.6537824375064
3	84	1.2	3.4875752566503
3	107	1.3	4.0390457294416
3	112	1.4	3.906031975057
3	117	1.5	4.2561634868616
3	140	1.6	2.7705674956087
3	145	1.7	4.8582175606862
3	151	1.8	2.5908430898562
3	182	1.9	4.0413961966988
3	189	2	3.0206874164287
3	196	2.1	3.6777626961702
3	227	2.2	3.5798885906115
3	234	2.3	2.6860084169311
3	241	2.4	4.8224098532228
3	272	2.5	4.7821767575806
3	279	2.6	4.9494540021988
3	286	2.7	2.9184503928991
3	332	2.8	3.0546081077773
3	339	2.9	2.8249696368584
3	346	3	2.5534541427623
3	392	3.1	3.0021035904065
3	399	3.2	3.8463015930029
3	406	3.3	3.0486770608695
3	452	3.4	4.7043139406014
3	460	3.5	3.4001974575222
3	469	3.6	3.6565669294214
3	529	3.7	3.6953791795531
3	538	3.8	1.8107767683162
3	547	3.9	-0.75158315943554
3	607	4	1.394208324491
3	637	4.1	0.49440139671788
3	646	4.2	-0.32721266441513
3	706	4.3	-1.1681478371611
3	736	4.4	-0.71416118182242
3	745	4.5	1.3577264233027
3	805	4.6	-1.3571016903734
3	835	4.7	2.1053077792749
3	844	4.8	-1.4822864142479
3	904	4.9	1.1068936763331
3	934	5	-1.3507589430083
3	943	5.1	0.96743841364514
3	1016	5.2	0.81321336969268
3	1054	5.3	-2.30130960932
3	1065	5.4	0.80972598050721
3	1139	5.5	0.13302136212587
3	1177	5.6	0.26788206771016
3	1188	5.7	0.3417247190373
3	1262	5.8	0.052014681859873
3	1300	5.9	-1.5809232665924
3	1338	6	2.3399985238211
3	1412	6.1	-1.6502199729439
3	1450	6.2	-0.51133459375706
3	1488	6.3	2.0561969390837
3	1562	6.4	0.089317551464774
3	1600	6.5	-2.3989976453595
3	1638	6.6	1.2467329856008
3	1712	6.7	-0.99895589228254
3	1757	6.8	1.6591343999607
3	1803	6.9	-0.12141839484684
3	1891	7	-1.6394203022355
3	1937	7.1	1.5064716426423
3	1983	7.2	-0.82151295908261
3	2071	7.3	1.1599569377722
3	2117	7.4	0.045627257204615
3	2163	7.5	-1.2821901967982
3	2251	7.6	0.97335026715882
3	2297	7.7	-0.71920225862414
3	2376	7.8	-0.15690936066676
3	2464	7.9	0.47948925406672
3	2510	8	0.82730867143255
3	2589	8.1	-0.70075957220979
3	2677	8.2	0.20821851678193
3	2723	8.3	-1.0300898732385
3	2802	8.4	1.2368031457299
3	2903	8.5	-0.93965048436075
3	2957	8.6	-0.13445080374368
3	3050	8.7	0.57851209945511
3	3152	8.8	-0.35299053241033
3	3206	8.9	-0.20808975968976
3	3338	9	-0.60836445714813
3	3440	9.1	0.011558100231923
3	3494	9.2	1.9792411790695
3	3626	9.3	-2.2465502907289
3	3728	9.4	2.0908851787681
3	3782	9.5	-1.7137882398674
3	3914	9.6	1.102062324062
3	4016	9.7	-0.11589845642447
3	4070	9.8	-1.304947079625
3	4202	9.9	1.5388586325571
3	4304	10	-0.40264635987114
3	4358	10.1	1.2562870222609
3	4509	10.2	-0.8170747110853
3	4625	10.3	-1.0957314237021
3	4687	10.4	1.3643785828026
3	4884	10.5	-1.5659715689253
3	5000	10.6	1.1651509377407
3	5062	10.7	-0.42838116118219
3	5259	10.8	0.78804262273479
3	5375	10.9	-1.5666201896966
3	5437	11	2.1408145746682
3	5634	11.1	-1.6310071188491
3	5750	11.2	1.150461488287
3	5812	11.3	-0.030805855058134
3	6009	11.4	-0.89774448599201
3	6125	11.5	0.69114224228542
3	6187	11.6	-1.6023285943083
3	6384	11.7	1.808374573011
3	6513	11.8	-0.72189720580354
3	6634	11.9	0.36007683200296
3	6857	12	-1.224214056856
3	6987	12.1	0.36748980346601
3	7108	12.2	1.4300297934096
3	7331	12.3	-1.5511937247356
3	7461	12.4	0.53283195244148
3	7582	12.5	0.77840923564509
3	7805	12.6	-1.072719412623
3	7935	12.7	1.5149031911278
3	8056	12.8	-0.68550922558643
3	8279	12.9	-1.5080468723318
3	8409	13	1.6208935523173
3	8530	13.1	-0.13553306926042
3	8753	13.2	-0.37539463955909
3	8883	13.3	-0.81181591842324
3	9004	13.4	1.8106831220211
3	9252	13.5	-2.0217775297351
3	9396	13.6	0.32833928940818
3	9531	13.7	1.9094808178488
3	9780	13.8	-1.6649609233718
3	9981	13.9	-0.45784836751409
3	10116	14	0.96018491894938
3	10365	14.1	-0.54787060595118
3	10566	14.2	1.5231211640639
3	10701	14.3	-0.43261396232992
3	10950	14.4	0.31489338725805
3	11151	14.5	0.14127191680018
3	11286	14.6	-0.24288876214996
3	11535	14.7	-0.90516387659591
3	11736	14.8	0.97290902049281
3	11871	14.9	-0.77474382647779
3	12120	15	0.90862991753966
3	12333	15.1	-1.6582979785744
3	12481	15.2	1.1212312075077
3	12756	15.3	0.5270436918363
3	12989	15.4	0.03116904234048
3	13138	15.5	-0.90594307461288
3	13413	15.6	0.0087490491569042
3	13646	15.7	-0.59097869030666
3	13795	15.8	1.4843441650737
3	14070	15.9	-1.4082487107953
3	14303	16	0.68401348195039
3	14452	16.1	0.82641734858044
3	14790	16.2	-0.80610690172762
3	15023	16.3	-0.031567105324939
3	15172	16.4	-0.11776284547523
3	15510	16.5	0.16168282716535
3	15755	16.6	0.26481942157261
3	15904	16.7	0.039219488971867
3	16273	16.8	-0.35922933835536
3	16538	16.9	0.027353100595064
3	16701	17	-1.2791652063606
3	17071	17.1	0.046682149986736
3	17336	17.2	0.39842985977884
3	17499	17.3	1.4415703283157
3	17869	17.4	-2.1207098057494
3	18134	17.5	1.7698012071196
3	18366	17.6	-0.01530225854367
3	18736	17.7	-1.4613621868193
3	19001	17.8	0.87922411272302
3	19233	17.9	0.42232697305735
3	19603	18	-0.73339670372661
3	19868	18.1	1.3639056275133
3	20106	18.2	-2.1984238940058
3	20476	18.3	0.050007693353109
3	20747	18.4	0.085175901767798
3	21004	18.5	0.30987625068519
3	21406	18.6	1.4077016588999
3	21697	18.7	-1.8820515839616
3	21955	18.8	0.37670690799132
3	22357	18.9	-0.30561332183424
3	22648	19	1.9797805667622
3	22981	19.1	0.30153737345245
3	23383	19.2	-1.5824169595726
3	23674	19.3	0.73584282479715
3	24007	19.4	-0.57251050136983
3	24409	19.5	0.37682371330448
3	24700	19.6	-0.33626751275733
3	25033	19.7	-0.11638949799817
3	25435	19.8	0.75521130347624
3	25732	19.9	-1.0939634474926
3	26065	20	-0.18766707449686
3	26473	20.1	0.40803986019455
3	26789	20.2	1.1084434989607
3	27229	20.3	-0.6670833658427
3	27669	20.4	0.27144561114255
3	27986	20.5	0.062648597522639
3	28426	20.6	0.66068898071535
3	28866	20.7	-1.0509575397009
3	29183	20.8	1.2541747145588
3	29623	20.9	-2.0478747779271
3	30063	21	1.5673592622625
3	30380	21.1	0.4157229186967
3	30820	21.2	-1.1828170309309
3	31260	21.3	1.0815355216619
3	31577	21.4	-1.0136082128156
3	32017	21.5	1.0089244565461
3	32463	21.6	-0.20271645276807
3	32786	21.7	-1.5602804272203
3	33257	21.8	1.0769334662473
3	33822	21.9	0.089541206834838
3	34165	22	-0.84896719432436
3	34637	22.1	0.45432828424964
3	35202	22.2	0.97886019735597
3	35545	22.3	-0.36035796219949
3	36017	22.4	-0.0096031936118379
3	36582	22.5	-1.1465931066778
3	36925	22.6	1.051163750235
3	37397	22.7	-0.59584371862002
3	37962	22.8	0.77877309930045
3	38305	22.9	-1.0551601840416
3	38777	23	0.54838267620653
3	39348	23.1	0.020957511733286
3	39697	23.2	-1.2744530156488
3	40169	23.3	-0.0094947317847982
3	40741	23.4	0.12437118566595
3	41208	23.5	1.0666996770306
3	41909	23.6	0.17720673291478
3	42522	23.7	-0.16331801365595
3	43078	23.8	-0.80460883618798
3	44217	23.9	-0.38845360686537
3	45168	24	2.0779093832243
3	45724	24.1	-1.4248405513354
3	46828	24.2	-0.76664201216772
3	47817	24.3	0.35988319956232
3	48373	24.4	1.4434627851006
3	49477	24.5	0.062436212319881
3	50421	24.6	-1.340568055748
3	50977	24.7	1.0934733011527
3	52116	24.8	-0.31905166630168
3	53105	24.9	-1.1939941497985
3	53667	25	1.2172310811002
3	54760	25.1	0.8428756671492
3	55816	25.2	-2.0829077000963
3	56398	25.3	0.97756517410744
3	57572	25.4	0.77107899996918
3	58580	25.5	-1.6122577828355
3	59162	25.6	1.0651510540629
3	60373	25.7	0.31026695272885
3	61430	25.8	0.78063160122838
3	62099	25.9	-1.168775446713
3	63310	26	-1.0586286877515
3	64327	26.1	1.9452475791331
3	64996	26.2	-0.29223961988464
3	66207	26.3	-1.358091281727
3	67224	26.4	1.6726007440593
3	67899	26.5	-2.1283700462664
3	69067	26.6	0.63283776573371
3	70075	26.7	1.1768867616775
3	70775	26.8	-1.1266722966684
3	72012	26.9	-0.2395364001859
3	73091	27	1.428082807688
3	73885	27.1	-0.24005476443563
3	75277	27.2	0.70694657624699
3	76504	27.3	-1.3859497045632
3	77257	27.4	-0.52275617839769
3	78622	27.5	-0.047242061700672
3	80018	27.6	1.6815554612549
3	80812	27.7	-1.6792411793722
3	82175	27.8	1.8858320312575
3	83537	27.9	-2.1934097638587
3	84331	28	1.9978071079822
3	85740	28.1	-0.075448495917954
3	87063	28.2	0.27960514533333
3	87835	28.3	-1.5906909905607
3	89209	28.4	0.12581977469381
3	90643	28.5	-0.26150920428336
3	91438	28.6	1.139613573323
3	92916	28.7	-0.22646712313872
3	94308	28.8	-0.13147313031368
3	95196	28.9	0.9540498116985
3	96799	29	-1.4025908516487
3	98366	29.1	-0.74628427333664
3	99254	29.2	1.68940115429
3	100974	29.3	-0.34134872956201
3	102472	29.4	0.73954132269137
3	103362	29.5	-1.6534660122124
3	105113	29.6	1.4805810007965
3	106599	29.7	-0.7426971278619
3	107481	29.8	0.3161257901229
3	109167	29.9	-0.1187759777531
3	110711	30	0.41337285889313
3	111609	30.1	-1.2131931551266
3	113387	30.2	0.37872305954807
3	114943	30.3	0.71893899643328
3	115869	30.4	-1.156621213886
3	117677	30.5	-0.60079772258177
3	119329	30.6	1.573840038036
3	120254	30.7	0.41426007985137
3	122025	30.8	-2.0251764293062
3	123688	30.9	1.4441549126059
3	124617	31	-1.3577007193817
3	126391	31.1	2.3212564038113
3	128117	31.2	-1.8512173148338
3	129042	31.3	0.11802305059973
3	130930	31.4	1.3898926082766
3	132633	31.5	-0.50886587938294
3	133565	31.6	-0.86666280112695
3	135352	31.7	0.43263268191367
3	137107	31.8	-0.63331048004329
3	138072	31.9	0.071430596872233
3	139934	32	-0.44705951586366
3	141726	32.1	0.58668115816545
3	142783	32.2	1.2279097427381
3	144689	32.3	-0.28549348353408
3	146492	32.4	0.30554778524674
3	147552	32.5	-0.12664363894146
3	149467	32.6	-0.81523933331482
3	151228	32.7	-0.7228308840422
3	152284	32.8	0.44642830907833
3	154114	32.9	-0.77574834169354
3	155876	33	0.20562810474075
3	156932	33.1	1.5162358898669
3	158679	33.2	-1.284671149333
3	160262	33.3	1.745915702777
3	161257	33.4	-1.2288617406739
3	163074	33.5	-0.037388103664853
3	164762	33.6	0.61532740539405
3	165894	33.7	-0.39672369195614
3	167914	33.8	-0.96291888097767
3	169705	33.9	2.1372145519126
3	170791	34	-1.3819207227789
3	172814	34.1	-0.86621950147673
3	174701	34.2	0.26417494693305
3	175833	34.3	0.020705856732093
3	177818	34.4	1.167915094411
3	179696	34.5	0.48973328433931
3	180828	34.6	-0.11218860221561
3	182796	34.7	0.45424928131979
3	184684	34.8	-0.88601032854058
3	185777	34.9	-1.0077742894646
3	187843	35	1.8342600145843
3	189733	35.1	-0.50124039931688
3	190914	35.2	-1.0698221728671
3	193035	35.3	-0.49653534020763
3	195084	35.4	-0.091651257243939
3	196218	35.5	0.20878595998511
3	198289	35.6	1.1408964096336
3	200381	35.7	-0.065708682523109
3	201515	35.8	-1.3400936377002
3	203487	35.9	1.8361522711348
3	205579	36	-1.1400366132148
3	206761	36.1	0.11513186676893
3	208748	36.2	1.5001204086002
2	7	0.2	0.48627966244239
2	12	0.3	0.95704413303575
2	17	0.4	1.4049410096237
2	22	0.5	1.8245271876768
2	27	0.6	2.2544701955678
2	41	0.7	2.6363109136032
2	46	0.8	3.0508647608099
2	51	0.9	3.4004409439418
2	74	1	3.8178189181673
2	79	1.1	4.1831971619179
2	84	1.2	4.5319546875829
2	107	1.3	4.9358592605271
2	112	1.4	5.3264624580328
2	117	1.5	5.7520788067189
2	140	1.6	6.0291355562798
2	145	1.7	6.5149573123484
2	151	1.8	6.774041621334
2	182	1.9	7.1781812410039
2	189	2	7.4802499826468
2	196	2.1	7.8480262522638
2	227	2.2	8.206015111325
2	234	2.3	8.4746159530181
2	241	2.4	8.9568569383404
2	272	2.5	9.4350746140984
2	279	2.6	9.9300200143183
2	286	2.7	10.221865053608
2	332	2.8	10.527325864386
2	339	2.9	10.809822828072
2	346	3	11.065168242348
2	392	3.1	11.365378601389
2	399	3.2	11.750008760689
2	406	3.3	12.054876466776
2	452	3.4	12.525307860836
2	460	3.5	12.865327606588
2	469	3.6	13.23098429953
2	529	3.7	13.600522217486
2	538	3.8	13.781599894317
2	547	3.9	13.706441578374
2	607	4	13.845862410823
2	637	4.1	13.895302550495
2	646	4.2	13.862581284053
2	706	4.3	13.745766500337
2	736	4.4	13.674350382155
2	745	4.5	13.810123024485
2	805	4.6	13.674412855448
2	835	4.7	13.884943633375
2	844	4.8	13.73671499195
2	904	4.9	13.847404359584
2	934	5	13.712328465283
2	943	5.1	13.809072306647
2	1016	5.2	13.890393643617
2	1054	5.3	13.660262682685
2	1065	5.4	13.741235280735
2	1139	5.5	13.754537416948
2	1177	5.6	13.781325623719
2	1188	5.7	13.815498095623
2	1262	5.8	13.820699563809
2	1300	5.9	13.662607237149
2	1338	6	13.896607089532
2	1412	6.1	13.731585092237
2	1450	6.2	13.680451632862
2	1488	6.3	13.88607132677
2	1562	6.4	13.895003081916
2	1600	6.5	13.65510331738
2	1638	6.6	13.779776615941
2	1712	6.7	13.679881026712
2	1757	6.8	13.845794466708
2	1803	6.9	13.833652627224
2	1891	7	13.669710597
2	1937	7.1	13.820357761264
2	1983	7.2	13.738206465356
2	2071	7.3	13.854202159133
2	2117	7.4	13.858764884854
2	2163	7.5	13.730545865174
2	2251	7.6	13.82788089189
2	2297	7.7	13.755960666027
2	2376	7.8	13.740269729961
2	2464	7.9	13.788218655367
2	2510	8	13.870949522511
2	2589	8.1	13.80087356529
2	2677	8.2	13.821695416968
2	2723	8.3	13.718686429644
2	2802	8.4	13.842366744217
2	2903	8.5	13.748401695781
2	2957	8.6	13.734956615407
2	3050	8.7	13.792807825352
2	3152	8.8	13.757508772111
2	3206	8.9	13.736699796142
2	3338	9	13.675863350427
2	3440	9.1	13.67701916045
2	3494	9.2	13.874943278357
2	3626	9.3	13.650288249284
2	3728	9.4	13.859376767161
2	3782	9.5	13.687997943175
2	3914	9.6	13.798204175581
2	4016	9.7	13.786614329938
2	4070	9.8	13.656119621976
2	4202	9.9	13.810005485232
2	4304	10	13.769740849244
2	4358	10.1	13.895369551471
2	4509	10.2	13.813662080362
2	4625	10.3	13.704088937992
2	4687	10.4	13.840526796272
2	4884	10.5	13.683929639379
2	5000	10.6	13.800444733154
2	5062	10.7	13.757606617035
2	5259	10.8	13.836410879309
2	5375	10.9	13.679748860339
2	5437	11	13.893830317806
2	5634	11.1	13.730729605921
2	5750	11.2	13.84577575475
2	5812	11.3	13.842695169244
2	6009	11.4	13.752920720645
2	6125	11.5	13.822034944873
2	6187	11.6	13.661802085442
2	6384	11.7	13.842639542744
2	6513	11.8	13.770449822163
2	6634	11.9	13.806457505364
2	6857	12	13.684036099678
2	6987	12.1	13.720785080025
2	7108	12.2	13.863788059365
2	7331	12.3	13.708668686892
2	7461	12.4	13.761951882136
2	7582	12.5	13.839792805701
2	7805	12.6	13.732520864438
2	7935	12.7	13.884011183551
2	8056	12.8	13.815460260992
2	8279	12.9	13.664655573759
2	8409	13	13.826744928991
2	8530	13.1	13.813191622065
2	8753	13.2	13.775652158109
2	8883	13.3	13.694470566267
2	9004	13.4	13.875538878469
2	9252	13.5	13.673361125495
2	9396	13.6	13.706195054436
2	9531	13.7	13.897143136221
2	9780	13.8	13.730647043884
2	9981	13.9	13.684862207132
2	10116	14	13.780880699027
2	10365	14.1	13.726093638432
2	10566	14.2	13.878405754839
2	10701	14.3	13.835144358606
2	10950	14.4	13.866633697331
2	11151	14.5	13.880760889011
2	11286	14.6	13.856472012796
2	11535	14.7	13.765955625137
2	11736	14.8	13.863246527186
2	11871	14.9	13.785772144538
2	12120	15	13.876635136292
2	12333	15.1	13.710805338435
2	12481	15.2	13.822928459186
2	12756	15.3	13.875632828369
2	12989	15.4	13.878749732603
2	13138	15.5	13.788155425142
2	13413	15.6	13.789030330058
2	13646	15.7	13.729932461027
2	13795	15.8	13.878366877534
2	14070	15.9	13.737542006455
2	14303	16	13.80594335465
2	14452	16.1	13.888585089508
2	14790	16.2	13.807974399335
2	15023	16.3	13.804817688803
2	15172	16.4	13.793041404255
2	15510	16.5	13.809209686972
2	15755	16.6	13.835691629129
2	15904	16.7	13.839613578026
2	16273	16.8	13.803690644191
2	16538	16.9	13.80642595425
2	16701	17	13.678509433614
2	17071	17.1	13.683177648613
2	17336	17.2	13.723020634591
2	17499	17.3	13.867177667422
2	17869	17.4	13.655106686847
2	18134	17.5	13.832086807559
2	18366	17.6	13.830556581705
2	18736	17.7	13.684420363023
2	19001	17.8	13.772342774295
2	19233	17.9	13.814575471601
2	19603	18	13.741235801228
2	19868	18.1	13.87762636398
2	20106	18.2	13.657783974579
2	20476	18.3	13.662784743914
2	20747	18.4	13.671302334091
2	21004	18.5	13.70228995916
2	21406	18.6	13.84306012505
2	21697	18.7	13.654854966654
2	21955	18.8	13.692525657453
2	22357	18.9	13.661964325269
2	22648	19	13.859942381945
2	22981	19.1	13.890096119291
2	23383	19.2	13.731854423333
2	23674	19.3	13.805438705813
2	24007	19.4	13.748187655676
2	24409	19.5	13.785870027007
2	24700	19.6	13.752243275731
2	25033	19.7	13.740604325931
2	25435	19.8	13.816125456279
2	25732	19.9	13.706729111529
2	26065	20	13.68796240408
2	26473	20.1	13.728766390099
2	26789	20.2	13.839610739995
2	27229	20.3	13.772902403411
2	27669	20.4	13.800046964525
2	27986	20.5	13.806311824278
2	28426	20.6	13.872380722349
2	28866	20.7	13.767284968379
2	29183	20.8	13.892702439835
2	29623	20.9	13.687914962042
2	30063	21	13.844650888268
2	30380	21.1	13.886223180138
2	30820	21.2	13.767941477045
2	31260	21.3	13.876095029211
2	31577	21.4	13.77473420793
2	32017	21.5	13.875626653584
2	32463	21.6	13.855355008307
2	32786	21.7	13.699326965585
2	33257	21.8	13.80702031221
2	33822	21.9	13.815974432894
2	34165	22	13.731077713461
2	34637	22.1	13.776510541886
2	35202	22.2	13.874396561622
2	35545	22.3	13.838360765402
2	36017	22.4	13.837400446041
2	36582	22.5	13.722741135373
2	36925	22.6	13.827857510396
2	37397	22.7	13.768273138534
2	37962	22.8	13.846150448464
2	38305	22.9	13.74063443006
2	38777	23	13.795472697681
2	39348	23.1	13.797568448854
2	39697	23.2	13.670123147289
2	40169	23.3	13.669173674111
2	40741	23.4	13.681610792677
2	41208	23.5	13.78828076038
2	41909	23.6	13.806001433672
2	42522	23.7	13.789669632306
2	43078	23.8	13.709208748688
2	44217	23.9	13.670363388001
2	45168	24	13.878154326323
2	45724	24.1	13.73567027119
2	46828	24.2	13.659006069973
2	47817	24.3	13.694994389929
2	48373	24.4	13.839340668439
2	49477	24.5	13.845584289671
2	50421	24.6	13.711527484097
2	50977	24.7	13.820874814212
2	52116	24.8	13.788969647582
2	53105	24.9	13.669570232602
2	53667	25	13.791293340712
2	54760	25.1	13.875580907427
2	55816	25.2	13.667290137417
2	56398	25.3	13.765046654828
2	57572	25.4	13.842154554825
2	58580	25.5	13.680928776541
2	59162	25.6	13.787443881948
2	60373	25.7	13.81847057722
2	61430	25.8	13.896533737343
2	62099	25.9	13.779656192672
2	63310	26	13.673793323897
2	64327	26.1	13.86831808181
2	64996	26.2	13.839094119822
2	66207	26.3	13.703284991649
2	67224	26.4	13.870545066055
2	67899	26.5	13.657708061428
2	69067	26.6	13.720991838002
2	70075	26.7	13.838680514169
2	70775	26.8	13.726013284503
2	72012	26.9	13.702059644484
2	73091	27	13.844867925253
2	73885	27.1	13.820862448809
2	75277	27.2	13.891557106434
2	76504	27.3	13.752962135978
2	77257	27.4	13.700686518138
2	78622	27.5	13.695962311968
2	80018	27.6	13.864117858093
2	80812	27.7	13.696193740156
2	82175	27.8	13.884776943282
2	83537	27.9	13.665435966896
2	84331	28	13.865216677694
2	85740	28.1	13.857671828102
2	87063	28.2	13.885632342636
2	87835	28.3	13.72656324358
2	89209	28.4	13.739145221049
2	90643	28.5	13.712994300621
2	91438	28.6	13.826955657953
2	92916	28.7	13.804308945639
2	94308	28.8	13.791161632608
2	95196	28.9	13.886566613778
2	96799	29	13.746307528613
2	98366	29.1	13.671679101279
2	99254	29.2	13.840619216708
2	100974	29.3	13.806484343752
2	102472	29.4	13.880438476021
2	103362	29.5	13.7150918748
2	105113	29.6	13.863149974879
2	106599	29.7	13.788880262093
2	107481	29.8	13.820492841105
2	109167	29.9	13.80861524333
2	110711	30	13.849952529219
2	111609	30.1	13.728633213707
2	113387	30.2	13.766505519662
2	114943	30.3	13.838399419305
2	115869	30.4	13.722737297916
2	117677	30.5	13.662657525658
2	119329	30.6	13.820041529462
2	120254	30.7	13.861467537447
2	122025	30.8	13.658949894516
2	123688	30.9	13.803365385777
2	124617	31	13.667595313839
2	126391	31.1	13.89972095422
2	128117	31.2	13.714599222736
2	129042	31.3	13.726401527796
2	130930	31.4	13.865390788624
2	132633	31.5	13.814504200686
2	133565	31.6	13.727837920573
2	135352	31.7	13.771101188764
2	137107	31.8	13.70777014076
2	138072	31.9	13.714913200447
2	139934	32	13.670207248861
2	141726	32.1	13.728875364678
2	142783	32.2	13.851666338951
2	144689	32.3	13.823116990598
2	146492	32.4	13.853671769123
2	147552	32.5	13.841007405228
2	149467	32.6	13.759483471897
2	151228	32.7	13.687200383493
2	152284	32.8	13.731843214401
2	154114	32.9	13.654268380231
2	155876	33	13.674831190705
2	156932	33.1	13.826454779692
2	158679	33.2	13.697987664759
2	160262	33.3	13.872579235036
2	161257	33.4	13.749693060969
2	163074	33.5	13.745954250603
2	164762	33.6	13.807486991142
2	165894	33.7	13.767814621946
2	167914	33.8	13.671522733849
2	169705	33.9	13.88524418904
2	170791	34	13.747052116762
2	172814	34.1	13.660430166614
2	174701	34.2	13.686847661308
2	175833	34.3	13.688918246981
2	177818	34.4	13.805709756422
2	179696	34.5	13.854683084856
2	180828	34.6	13.843464224634
2	182796	34.7	13.888889152766
2	184684	34.8	13.800288119912
2	185777	34.9	13.699510690966
2	187843	35	13.882936692424
2	189733	35.1	13.832812652492
2	190914	35.2	13.725830435206
2	193035	35.3	13.676176901185
2	195084	35.4	13.667011775461
2	196218	35.5	13.687890371459
2	198289	35.6	13.801980012422
2	200381	35.7	13.79540914417
2	201515	35.8	13.6613997804
2	203487	35.9	13.845015007514
2	205579	36	13.731011346192
2	206761	36.1	13.742524532869
2	208748	36.2	13.892536573729
1	3	0.1	39.95
1	7	0.2	39.95
1	12	0.3	39.998627966244
1	17	0.4	40.094332379548
1	22	0.5	40.23482648051
1	27	0.6	40.417279199278
1	41	0.7	40.642726218835
1	46	0.8	40.906357310195
1	51	0.9	41.211443786276
1	74	1	41.55148788067
1	79	1.1	41.933269772487
1	84	1.2	42.351589488679
1	107	1.3	42.804784957437
1	112	1.4	43.29837088349
1	117	1.5	43.831017129293
1	140	1.6	44.406225009965
1	145	1.7	45.009138565593
1	151	1.8	45.660634296828
1	182	1.9	46.338038458961
1	189	2	47.055856583061
1	196	2.1	47.803881581326
1	227	2.2	48.588684206552
1	234	2.3	49.409285717685
1	241	2.4	50.256747312987
1	272	2.5	51.152433006821
1	279	2.6	52.095940468231
1	286	2.7	53.088942469662
1	332	2.8	54.111128975023
1	339	2.9	55.163861561462
1	346	3	56.244843844269
1	392	3.1	57.351360668504
1	399	3.2	58.487898528643
1	406	3.3	59.662899404712
1	452	3.4	60.868387051389
1	460	3.5	62.120917837473
1	469	3.6	63.407450598132
1	529	3.7	64.730549028085
1	538	3.8	66.090601249833
1	547	3.9	67.468761239265
1	607	4	68.839405397102
1	637	4.1	70.223991638185
1	646	4.2	71.613521893234
1	706	4.3	72.999780021639
1	736	4.4	74.374356671673
1	745	4.5	75.741791709889
1	805	4.6	77.122804012337
1	835	4.7	78.490245297882
1	844	4.8	79.878739661219
1	904	4.9	81.252411160414
1	934	5	82.637151596373
1	943	5.1	84.008384442901
1	1016	5.2	85.389291673566
1	1054	5.3	86.778331037928
1	1065	5.4	88.144357306196
1	1139	5.5	89.51848083427
1	1177	5.6	90.893934575964
1	1188	5.7	92.272067138336
1	1262	5.8	93.653616947899
1	1300	5.9	95.035686904279
1	1338	6	96.401947627994
1	1412	6.1	97.791608336948
1	1450	6.2	99.164766846171
1	1488	6.3	100.53281200946
1	1562	6.4	101.92141914213
1	1600	6.5	103.31091945033
1	1638	6.6	104.67642978206
1	1712	6.7	106.05440744366
1	1757	6.8	107.42239554633
1	1803	6.9	108.806974993
1	1891	7	110.19034025572
1	1937	7.1	111.55731131542
1	1983	7.2	112.93934709155
1	2071	7.3	114.31316773808
1	2117	7.4	115.698587954
1	2163	7.5	117.08446444248
1	2251	7.6	118.457519029
1	2297	7.7	119.84030711819
1	2376	7.8	121.21590318479
1	2464	7.9	122.58993015779
1	2510	8	123.96875202333
1	2589	8.1	125.35584697558
1	2677	8.2	126.73593433211
1	2723	8.3	128.1181038738
1	2802	8.4	129.48997251677
1	2903	8.5	130.87420919119
1	2957	8.6	132.24904936077
1	3050	8.7	133.62254502231
1	3152	8.8	135.00182580484
1	3206	8.9	136.37757668205
1	3338	9	137.75124666167
1	3440	9.1	139.11883299671
1	3494	9.2	140.48653491276
1	3626	9.3	141.87402924059
1	3728	9.4	143.23905806552
1	3782	9.5	144.62499574224
1	3914	9.6	145.99379553655
1	4016	9.7	147.37361595411
1	4070	9.8	148.7522773871
1	4202	9.9	150.1178893493
1	4304	10	151.49888989783
1	4358	10.1	152.87586398275
1	4509	10.2	154.2654009379
1	4625	10.3	155.64676714593
1	4687	10.4	157.01717603973
1	4884	10.5	158.40122871936
1	5000	10.6	159.7696216833
1	5062	10.7	161.14966615661
1	5259	10.8	162.52542681832
1	5375	10.9	163.90906790625
1	5437	11	165.27704279228
1	5634	11.1	166.66642582406
1	5750	11.2	168.03949878465
1	5812	11.3	169.42407636013
1	6009	11.4	170.80834587705
1	6125	11.5	172.18363794912
1	6187	11.6	173.56584144361
1	6384	11.7	174.93202165215
1	6513	11.8	176.31628560642
1	6634	11.9	177.69333058864
1	6857	12	179.07397633918
1	6987	12.1	180.44237994914
1	7108	12.2	181.81445845715
1	7331	12.3	183.20083726308
1	7461	12.4	184.57170413177
1	7582	12.5	185.94789931999
1	7805	12.6	187.33187860056
1	7935	12.7	188.705130687
1	8056	12.8	190.09353180536
1	8279	12.9	191.47507783145
1	8409	13	192.84154338883
1	8530	13.1	194.22421788173
1	8753	13.2	195.60553704394
1	8883	13.3	196.98310225975
1	9004	13.4	198.35254931637
1	9252	13.5	199.74010320422
1	9396	13.6	201.10743931677
1	9531	13.7	202.47805882221
1	9780	13.8	203.86777313584
1	9981	13.9	205.24083784022
1	10116	14	206.60932406094
1	10365	14.1	207.98741213084
1	10566	14.2	209.36002149468
1	10701	14.3	210.74786207017
1	10950	14.4	212.13137650603
1	11151	14.5	213.51803987576
1	11286	14.6	214.90611596466
1	11535	14.7	216.29176316594
1	11736	14.8	217.66835872846
1	11871	14.9	219.05468338117
1	12120	15	220.43326059563
1	12333	15.1	221.82092410926
1	12481	15.2	223.1920046431
1	12756	15.3	224.57429748902
1	12989	15.4	225.96186077186
1	13138	15.5	227.34973574512
1	13413	15.6	228.72855128763
1	13646	15.7	230.10745432064
1	13795	15.8	231.48044756674
1	14070	15.9	232.86828425449
1	14303	16	234.24203845514
1	14452	16.1	235.6226327906
1	14790	16.2	237.01149129955
1	15023	16.3	238.39228873949
1	15172	16.4	239.77277050837
1	15510	16.5	241.15207464879
1	15755	16.6	242.53299561749
1	15904	16.7	243.9165647804
1	16273	16.8	245.30052613821
1	16538	16.9	246.68089520262
1	16701	17	248.06153779805
1	17071	17.1	249.42938874141
1	17336	17.2	250.79770650627
1	17499	17.3	252.17000856973
1	17869	17.4	253.55672633647
1	18134	17.5	254.92223700516
1	18366	17.6	256.30544568591
1	18736	17.7	257.68850134408
1	19001	17.8	259.05694338039
1	19233	17.9	260.43417765782
1	19603	18	261.81563520498
1	19868	18.1	263.1897587851
1	20106	18.2	264.5775214215
1	20476	18.3	265.94329981896
1	20747	18.4	267.30957829335
1	21004	18.5	268.67670852676
1	21406	18.6	270.04693752267
1	21697	18.7	271.43124353518
1	21955	18.8	272.79672903184
1	22357	18.9	274.16598159759
1	22648	19	275.53217803011
1	22981	19.1	276.91817226831
1	23383	19.2	278.30718188024
1	23674	19.3	279.68036732257
1	24007	19.4	281.06091119315
1	24409	19.5	282.43572995872
1	24700	19.6	283.81431696142
1	25033	19.7	285.18954128899
1	25435	19.8	286.56360172159
1	25732	19.9	287.94521426721
1	26065	20	289.31588717837
1	26473	20.1	290.68468341878
1	26789	20.2	292.05756005779
1	27229	20.3	293.44152113179
1	27669	20.4	294.81881137213
1	27986	20.5	296.19881606858
1	28426	20.6	297.57944725101
1	28866	20.7	298.96668532324
1	29183	20.8	300.34341382008
1	29623	20.9	301.73268406406
1	30063	21	303.10147556027
1	30380	21.1	304.48594064909
1	30820	21.2	305.87456296711
1	31260	21.3	307.25135711481
1	31577	21.4	308.63896661773
1	32017	21.5	310.01644003853
1	32463	21.6	311.40400270388
1	32786	21.7	312.78953820472
1	33257	21.8	314.15947090127
1	33822	21.9	315.54017293249
1	34165	22	316.92177037578
1	34637	22.1	318.29487814713
1	35202	22.2	319.67252920132
1	35545	22.3	321.05996885748
1	36017	22.4	322.44380493402
1	36582	22.5	323.82754497863
1	36925	22.6	325.19981909216
1	37397	22.7	326.5826048432
1	37962	22.8	327.95943215706
1	38305	22.9	329.3440472019
1	38777	23	330.71811064491
1	39348	23.1	332.09765791468
1	39697	23.2	333.47741475956
1	40169	23.3	334.84442707429
1	40741	23.4	336.2113444417
1	41208	23.5	337.57950552097
1	41909	23.6	338.95833359701
1	42522	23.7	340.33893374037
1	43078	23.8	341.71790070361
1	44217	23.9	343.08882157847
1	45168	24	344.45585791727
1	45724	24.1	345.84367334991
1	46828	24.2	347.21724037703
1	47817	24.3	348.58314098402
1	48373	24.4	349.95264042302
1	49477	24.5	351.33657448986
1	50421	24.6	352.72113291883
1	50977	24.7	354.09228566724
1	52116	24.8	355.47437314866
1	53105	24.9	356.85327011342
1	53667	25	358.22022713668
1	54760	25.1	359.59935647075
1	55816	25.2	360.98691456149
1	56398	25.3	362.35364357523
1	57572	25.4	363.73014824071
1	58580	25.5	365.1143636962
1	59162	25.6	366.48245657385
1	60373	25.7	367.86120096205
1	61430	25.8	369.24304801977
1	62099	25.9	370.6327013935
1	63310	26	372.01066701277
1	64327	26.1	373.37804634516
1	64996	26.2	374.76487815334
1	66207	26.3	376.14878756532
1	67224	26.4	377.51911606449
1	67899	26.5	378.90617057109
1	69067	26.6	380.27194137724
1	70075	26.7	381.64404056104
1	70775	26.8	383.02790861245
1	72012	26.9	384.4005099409
1	73091	27	385.77071590535
1	73885	27.1	387.15520269788
1	75277	27.2	388.53728894276
1	76504	27.3	389.9264446534
1	77257	27.4	391.301740867
1	78622	27.5	392.67180951881
1	80018	27.6	394.04140575001
1	80812	27.7	395.42781753582
1	82175	27.8	396.79743690983
1	83537	27.9	398.18591460416
1	84331	28	399.55245820085
1	85740	28.1	400.93897986862
1	87063	28.2	402.32474705143
1	87835	28.3	403.71331028569
1	89209	28.4	405.08596661005
1	90643	28.5	406.45988113216
1	91438	28.6	407.83118056222
1	92916	28.7	409.21387612802
1	94308	28.8	410.59430702258
1	95196	28.9	411.97342318584
1	96799	29	413.36207984722
1	98366	29.1	414.73671060008
1	99254	29.2	416.10387851021
1	100974	29.3	417.48794043188
1	102472	29.4	418.86858886625
1	103362	29.5	420.25663271385
1	105113	29.6	421.62814190133
1	106599	29.7	423.01445689882
1	107481	29.8	424.39334492503
1	109167	29.9	425.77539420914
1	110711	30	427.15625573348
1	111609	30.1	428.5412509864
1	113387	30.2	429.91411430777
1	114943	30.3	431.29076485973
1	115869	30.4	432.67460480166
1	117677	30.5	434.04687853146
1	119329	30.6	435.41314428402
1	120254	30.7	436.79514843697
1	122025	30.8	438.18129519071
1	123688	30.9	439.54719018016
1	124617	31	440.92752671874
1	126391	31.1	442.29428625013
1	128117	31.2	443.68425834555
1	129042	31.3	445.05571826782
1	130930	31.4	446.4283584206
1	132633	31.5	447.81489749946
1	133565	31.6	449.19634791953
1	135352	31.7	450.56913171159
1	137107	31.8	451.94624183047
1	138072	31.9	453.31701884454
1	139934	32	454.68851016459
1	141726	32.1	456.05553088947
1	142783	32.2	457.42841842594
1	144689	32.3	458.81358505984
1	146492	32.4	460.1958967589
1	147552	32.5	461.58126393581
1	149467	32.6	462.96536467633
1	151228	32.7	464.34131302352
1	152284	32.8	465.71003306187
1	154114	32.9	467.08321738331
1	155876	33	468.44864422133
1	156932	33.1	469.8161273404
1	158679	33.2	471.19877281837
1	160262	33.3	472.56857158485
1	161257	33.4	473.95582950835
1	163074	33.5	475.33079881445
1	164762	33.6	476.70539423951
1	165894	33.7	478.08614293862
1	167914	33.8	479.46292440082
1	169705	33.9	480.8300766742
1	170791	34	482.21860109311
1	172814	34.1	483.59330630478
1	174701	34.2	484.95934932144
1	175833	34.3	486.32803408758
1	177818	34.4	487.69692591227
1	179696	34.5	489.07749688792
1	180828	34.6	490.4629651964
1	182796	34.7	491.84731161886
1	184684	34.8	493.23620053414
1	185777	34.9	494.61622934613
1	187843	35	495.98618041523
1	189733	35.1	497.37447408447
1	190914	35.2	498.75775534972
1	193035	35.3	500.13033839324
1	195084	35.4	501.49795608336
1	196218	35.5	502.86465726091
1	198289	35.6	504.23344629805
1	200381	35.7	505.61364429929
1	201515	35.8	506.99318521371
1	203487	35.9	508.35932519175
1	205579	36	509.7438266925
1	206761	36.1	511.11692782712
1	208748	36.2	512.49118028041
0	3	0.1	20.05
0	7	0.2	20.05
0	12	0.3	20.05
0	17	0.4	20.05
0	22	0.5	20.05
0	27	0.6	20.05
0	41	0.7	20.05
0	46	0.8	20.05
0	51	0.9	20.05
0	74	1	20.05
0	79	1.1	20.05
0	84	1.2	20.05
0	107	1.3	20.05
0	112	1.4	20.05
0	117	1.5	20.05
0	140	1.6	20.05
0	145	1.7	20.05
0	151	1.8	20.05
0	182	1.9	20.05
0	189	2	20.05
0	196	2.1	20.05
0	227	2.2	20.05
0	234	2.3	20.05
0	241	2.4	20.05
0	272	2.5	20.05
0	279	2.6	20.05
0	286	2.7	20.05
0	332	2.8	20.05
0	339	2.9	20.05
0	346	3	20.05
0	392	3.1	20.05
0	399	3.2	20.05
0	406	3.3	20.05
0	452	3.4	20.05
0	460	3.5	20.05
0	469	3.6	20.05
0	529	3.7	20.05
0	538	3.8	20.05
0	547	3.9	20.05
0	607	4	20.05
0	637	4.1	20.05
0	646	4.2	20.05
0	706	4.3	20.05
0	736	4.4	20.05
0	745	4.5	20.05
0	805	4.6	20.05
0	835	4.7	20.05
0	844	4.8	20.05
0	904	4.9	20.05
0	934	5	20.05
0	943	5.1	20.05
0	1016	5.2	20.05
0	1054	5.3	20.05
0	1065	5.4	20.05
0	1139	5.5	20.05
0	1177	5.6	20.05
0	1188	5.7	20.05
0	1262	5.8	20.05
0	1300	5.9	20.05
0	1338	6	20.05
0	1412	6.1	20.05
0	1450	6.2	20.05
0	1488	6.3	20.05
0	1562	6.4	20.05
0	1600	6.5	20.05
0	1638	6.6	20.05
0	1712	6.7	20.05
0	1757	6.8	20.05
0	1803	6.9	20.05
0	1891	7	20.05
0	1937	7.1	20.05
0	1983	7.2	20.05
0	2071	7.3	20.05
0	2117	7.4	20.05
0	2163	7.5	20.05
0	2251	7.6	20.05
0	2297	7.7	20.05
0	2376	7.8	20.05
0	2464	7.9	20.05
0	2510	8	20.05
0	2589	8.1	20.05
0	2677	8.2	20.05
0	2723	8.3	20.05
0	2802	8.4	20.05
0	2903	8.5	20.05
0	2957	8.6	20.05
0	3050	8.7	20.05
0	3152	8.8	20.05
0	3206	8.9	20.05
0	3338	9	20.05
0	3440	9.1	20.05
0	3494	9.2	20.05
0	3626	9.3	20.05
0	3728	9.4	20.05
0	3782	9.5	20.05
0	3914	9.6	20.05
0	4016	9.7	20.05
0	4070	9.8	20.05
0	4202	9.9	20.05
0	4304	10	20.05
0	4358	10.1	20.05
0	4509	10.2	20.05
0	4625	10.3	20.05
0	4687	10.4	20.05
0	4884	10.5	20.05
0	5000	10.6	20.05
0	5062	10.7	20.05
0	5259	10.8	20.05
0	5375	10.9	20.05
0	5437	11	20.05
0	5634	11.1	20.05
0	5750	11.2	20.05
0	5812	11.3	20.05
0	6009	11.4	20.05
0	6125	11.5	20.05
0	6187	11.6	20.05
0	6384	11.7	20.05
0	6513	11.8	20.05
0	6634	11.9	20.05
0	6857	12	20.05
0	6987	12.1	20.05
0	7108	12.2	20.05
0	7331	12.3	20.05
0	7461	12.4	20.05
0	7582	12.5	20.05
0	7805	12.6	20.05
0	7935	12.7	20.05
0	8056	12.8	20.05
0	8279	12.9	20.05
0	8409	13	20.05
0	8530	13.1	20.05
0	8753	13.2	20.05
0	8883	13.3	20.05
0	9004	13.4	20.05
0	9252	13.5	20.05
0	9396	13.6	20.05
0	9531	13.7	20.05
0	9780	13.8	20.05
0	9981	13.9	20.05
0	10116	14	20.05
0	10365	14.1	20.05
0	10566	14.2	20.05
0	10701	14.3	20.05
0	10950	14.4	20.05
0	11151	14.5	20.05
0	11286	14.6	20.05
0	11535	14.7	20.05
0	11736	14.8	20.05
0	11871	14.9	20.05
0	12120	15	20.05
0	12333	15.1	20.05
0	12481	15.2	20.05
0	12756	15.3	20.05
0	12989	15.4	20.05
0	13138	15.5	20.05
0	13413	15.6	20.05
0	13646	15.7	20.05
0	13795	15.8	20.05
0	14070	15.9	20.05
0	14303	16	20.05
0	14452	16.1	20.05
0	14790	16.2	20.05
0	15023	16.3	20.05
0	15172	16.4	20.05
0	15510	16.5	20.05
0	15755	16.6	20.05
0	15904	16.7	20.05
0	16273	16.8	20.05
0	16538	16.9	20.05
0	16701	17	20.05
0	17071	17.1	20.05
0	17336	17.2	20.05
0	17499	17.3	20.05
0	17869	17.4	20.05
0	18134	17.5	20.05
0	18366	17.6	20.05
0	18736	17.7	20.05
0	19001	17.8	20.05
0	19233	17.9	20.05
0	19603	18	20.05
0	19868	18.1	20.05
0	20106	18.2	20.05
0	20476	18.3	20.05
0	20747	18.4	20.05
0	21004	18.5	20.05
0	21406	18.6	20.05
0	21697	18.7	20.05
0	21955	18.8	20.05
0	22357	18.9	20.05
0	22648	19	20.05
0	22981	19.1	20.05
0	23383	19.2	20.05
0	23674	19.3	20.05
0	24007	19.4	20.05
0	24409	19.5	20.05
0	24700	19.6	20.05
0	25033	19.7	20.05
0	25435	19.8	20.05
0	25732	19.9	20.05
0	26065	20	20.05
0	26473	20.1	20.05
0	26789	20.2	20.05
0	27229	20.3	20.05
0	27669	20.4	20.05
0	27986	20.5	20.05
0	28426	20.6	20.05
0	28866	20.7	20.05
0	29183	20.8	20.05
0	29623	20.9	20.05
0	30063	21	20.05
0	30380	21.1	20.05
0	30820	21.2	20.05
0	31260	21.3	20.05
0	31577	21.4	20.05
0	32017	21.5	20.05
0	32463	21.6	20.05
0	32786	21.7	20.05
0	33257	21.8	20.05
0	33822	21.9	20.05
0	34165	22	20.05
0	34637	22.1	20.05
0	35202	22.2	20.05
0	35545	22.3	20.05
0	36017	22.4	20.05
0	36582	22.5	20.05
0	36925	22.6	20.05
0	37397	22.7	20.05
0	37962	22.8	20.05
0	38305	22.9	20.05
0	38777	23	20.05
0	39348	23.1	20.05
0	39697	23.2	20.05
0	40169	23.3	20.05
0	40741	23.4	20.05
0	41208	23.5	20.05
0	41909	23.6	20.05
0	42522	23.7	23.35
0	43078	23.8	23.35
0	44217	23.9	23.35
0	45168	24	23.35
0	45724	24.1	23.35
0	46828	24.2	23.35
0	47817	24.3	23.35
0	48373	24.4	23.35
0	49477	24.5	23.35
0	50421	24.6	23.35
0	50977	24.7	23.35
0	52116	24.8	23.35
0	53105	24.9	23.35
0	53667	25	23.35
0	54760	25.1	23.35
0	55816	25.2	23.35
0	56398	25.3	23.35
0	57572	25.4	23.35
0	58580	25.5	23.35
0	59162	25.6	23.35
0	60373	25.7	23.35
0	61430	25.8	23.35
0	62099	25.9	23.35
0	63310	26	23.35
0	64327	26.1	23.35
0	64996	26.2	23.35
0	66207	26.3	23.35
0	67224	26.4	23.35
0	67899	26.5	23.35
0	69067	26.6	23.35
0	70075	26.7	23.35
0	70775	26.8	23.35
0	72012	26.9	23.35
0	73091	27	23.35
0	73885	27.1	23.35
0	75277	27.2	23.35
0	76504	27.3	23.35
0	77257	27.4	23.35
0	78622	27.5	23.35
0	80018	27.6	23.35
0	80812	27.7	23.35
0	82175	27.8	23.35
0	83537	27.9	23.35
0	84331	28	23.35
0	85740	28.1	23.35
0	87063	28.2	23.35
0	87835	28.3	23.35
0	89209	28.4	23.35
0	90643	28.5	23.35
0	91438	28.6	23.35
0	92916	28.7	23.35
0	94308	28.8	23.35
0	95196	28.9	23.35
0	96799	29	23.35
0	98366	29.1	23.35
0	99254	29.2	23.35
0	100974	29.3	23.35
0	102472	29.4	23.35
0	103362	29.5	23.35
0	105113	29.6	23.35
0	106599	29.7	23.35
0	107481	29.8	23.35
0	109167	29.9	23.35
0	110711	30	23.35
0	111609	30.1	23.35
0	113387	30.2	23.35
0	114943	30.3	23.35
0	115869	30.4	23.35
0	117677	30.5	23.35
0	119329	30.6	23.35
0	120254	30.7	23.35
0	122025	30.8	23.35
0	123688	30.9	23.35
0	124617	31	23.35
0	126391	31.1	23.35
0	128117	31.2	23.35
0	129042	31.3	23.35
0	130930	31.4	23.35
0	132633	31.5	23.35
0	133565	31.6	23.35
0	135352	31.7	23.35
0	137107	31.8	23.35
0	138072	31.9	23.35
0	139934	32	23.35
0	141726	32.1	23.35
0	142783	32.2	23.35
0	144689	32.3	23.35
0	146492	32.4	23.35
0	147552	32.5	23.35
0	149467	32.6	23.35
0	151228	32.7	23.35
0	152284	32.8	23.35
0	154114	32.9	23.35
0	155876	33	23.35
0	156932	33.1	23.35
0	158679	33.2	23.35
0	160262	33.3	23.35
0	161257	33.4	23.35
0	163074	33.5	23.35
0	164762	33.6	23.35
0	165894	33.7	23.35
0	167914	33.8	23.35
0	169705	33.9	23.35
0	170791	34	23.35
0	172814	34.1	23.35
0	174701	34.2	23.35
0	175833	34.3	23.35
0	177818	34.4	23.35
0	179696	34.5	23.35
0	180828	34.6	23.35
0	182796	34.7	23.35
0	184684	34.8	23.35
0	185777	34.9	23.35
0	187843	35	23.35
0	189733	35.1	23.35
0	190914	35.2	23.35
0	193035	35.3	23.35
0	195084	35.4	23.35
0	196218	35.5	23.35
0	198289	35.6	23.35
0	200381	35.7	23.35
0	201515	35.8	23.35
0	203487	35.9	23.35
0	205579	36	23.35
0	206761	36.1	23.35
0	208748	36.2	23.35
vector 110 RSUExampleScenario.node[22].veinsmobility posx ETV
vector 111 RSUExampleScenario.node[22].veinsmobility posy ETV
vector 112 RSUExampleScenario.node[22].veinsmobility speed ETV
vector 113 RSUExampleScenario.node[22].veinsmobility acceleration ETV
vector 114 RSUExampleScenario.node[22].veinsmobility co2emission ETV
9	182	1.9	2.2696335280607
9	189	2	2.6743213937979
9	196	2.1	3.2406974099291
9	227	2.2	3.756270228942
9	234	2.3	3.728901114786
9	241	2.4	4.6460464724803
9	272	2.5	4.5305083130257
9	279	2.6	5.3637862227858
9	286	2.7	4.2531481192347
9	332	2.8	6.6413462836125
9	339	2.9	4.7589100287557
9	346	3	6.3229890560323
9	392	3.1	5.4973666011687
9	399	3.2	6.8066045895704
9	406	3.3	6.5124419512527
9	452	3.4	6.6179205968341
9	460	3.5	7.501299988937
9	469	3.6	6.1461552720595
9	529	3.7	10.410603768376
9	538	3.8	10.148958693315
9	547	3.9	8.0721950197426
9	607	4	9.2718138514317
9	637	4.1	11.033201705851
9	646	4.2	9.7336464079756
9	706	4.3	11.468662347723
9	736	4.4	9.9658566015677
9	745	4.5	10.713426742449
9	805	4.6	10.448321623088
9	835	4.7	8.8156013746396
9	844	4.8	11.150229792121
9	904	4.9	13.78569068368
9	934	5	14.561512374004
9	943	5.1	14.950638721718
9	1016	5.2	14.472556037145
9	1054	5.3	17.75740606944
9	1065	5.4	5.1351916959396
9	1139	5.5	1.2553828364695
9	1177	5.6	2.096349316918
9	1188	5.7	3.1462351313036
9	1262	5.8	1.7928141379006
9	1300	5.9	0.973
9	1338	6	4.296971339871
9	1412	6.1	2.0345716092809
9	1450	6.2	0.973
9	1488	6.3	0.973
9	1562	6.4	6.761536837822
9	1600	6.5	1.3486137706223
9	1638	6.6	2.0378876608048
9	1712	6.7	0.973
9	1757	6.8	0.973
9	1803	6.9	3.5384663209767
9	1891	7	1.4589446297783
9	1937	7.1	6.7726417494302
9	1983	7.2	0.973
9	2071	7.3	4.6668717812823
9	2117	7.4	0.973
9	2163	7.5	4.1637178872742
9	2251	7.6	0.973
9	2297	7.7	6.7256790993169
9	2376	7.8	3.4661233390795
9	2464	7.9	0.973
9	2510	8	3.2852425326649
9	2589	8.1	0.973
9	2677	8.2	0.973
9	2723	8.3	3.8496386622335
9	2802	8.4	2.142123062278
9	2903	8.5	3.4208642452031
9	2957	8.6	3.5782597439357
9	3050	8.7	0.973
9	3152	8.8	6.3834509207536
9	3206	8.9	0.973
9	3338	9	8.9391916461159
9	3440	9.1	0.973
9	3494	9.2	3.3701119944589
9	3626	9.3	0.973
9	3728	9.4	4.7775984592077
9	3782	9.5	0.973
9	3914	9.6	8.9889942822525
9	4016	9.7	0.973
9	4070	9.8	5.4059680488
9	4202	9.9	0.973
9	4304	10	5.7896596439396
9	4358	10.1	4.6839620227339
9	4509	10.2	0.973
9	4625	10.3	8.532605369256
9	4687	10.4	0.973
9	4884	10.5	5.3486630030679
9	5000	10.6	5.1727906336596
9	5062	10.7	0.973
9	5259	10.8	7.4972801061596
9	5375	10.9	0.973
9	5437	11	0.973
9	5634	11.1	4.6527996921339
9	5750	11.2	2.6862509823169
9	5812	11.3	0.973
9	6009	11.4	5.6312766378312
9	6125	11.5	2.4478732620372
9	6187	11.6	0.973
9	6384	11.7	0.973
9	6513	11.8	4.1682013326579
9	6634	11.9	0.973
9	6857	12	1.1767976501256
9	6987	12.1	2.3631102041599
9	7108	12.2	6.5293406258604
9	7331	12.3	0.973
9	7461	12.4	2.1365912434696
9	7582	12.5	2.461795376689
9	7805	12.6	0.973
9	7935	12.7	4.6762264186048
9	8056	12.8	4.4755109144838
9	8279	12.9	0.973
9	8409	13	0.973
9	8530	13.1	1.8604395570517
9	8753	13.2	9.2157311116636
9	8883	13.3	0.973
9	9004	13.4	1.118152643211
9	9252	13.5	1.9745450174265
9	9396	13.6	3.516705874002
9	9531	13.7	0.973
9	9780	13.8	0.973
9	9981	13.9	4.4562104496068
9	10116	14	2.6659599196927
9	10365	14.1	0.973
9	10566	14.2	8.6848864853064
9	10701	14.3	0.973
9	10950	14.4	1.867681827035
9	11151	14.5	0.973
9	11286	14.6	0.973
9	11535	14.7	6.2160600318603
9	11736	14.8	0.973
9	11871	14.9	2.3834435252583
9	12120	15	2.0593749428702
9	12333	15.1	9.3688159801386
9	12481	15.2	0.973
9	12756	15.3	2.0646498388571
9	12989	15.4	8.6422061466672
9	13138	15.5	1.194573857309
9	13413	15.6	1.2039341601548
9	13646	15.7	4.1753214092763
9	13795	15.8	0.973
9	14070	15.9	3.4042814317186
9	14303	16	2.4975256470391
9	14452	16.1	0.973
9	14790	16.2	4.9024078425897
9	15023	16.3	0.973
9	15172	16.4	1.6798510026819
9	15510	16.5	0.973
9	15755	16.6	1.5058922813188
9	15904	16.7	8.1590590534431
9	16273	16.8	3.6255775463068
9	16538	16.9	0.973
9	16701	17	0.973
9	17071	17.1	4.6665813129156
9	17336	17.2	2.5805517755969
9	17499	17.3	2.6303564118111
9	17869	17.4	2.8841790102993
9	18134	17.5	2.0368240600946
9	18366	17.6	1.1870993998051
9	18736	17.7	3.7314445504972
9	19001	17.8	0.973
9	19233	17.9	2.849176297361
9	19603	18	1.4211068864281
9	19868	18.1	3.7390039182465
9	20106	18.2	4.4675113820385
9	20476	18.3	0.973
9	20747	18.4	5.1426273398725
9	21004	18.5	0.973
9	21406	18.6	2.7726085511175
9	21697	18.7	4.3548539499015
9	21955	18.8	4.1669401742788
9	22357	18.9	0.973
9	22648	19	5.5073053339555
9	22981	19.1	0.973
9	23383	19.2	0.973
9	23674	19.3	7.9741684318423
9	24007	19.4	0.973
9	24409	19.5	0.973
9	24700	19.6	0.973
9	25033	19.7	3.2499981818992
9	25435	19.8	6.9602146007991
9	25732	19.9	1.211402331614
9	26065	20	3.0890630583156
9	26473	20.1	0.973
9	26789	20.2	2.7994926287554
9	27229	20.3	0.973
9	27669	20.4	9.7328811641299
9	27986	20.5	0.973
9	28426	20.6	0.973
9	28866	20.7	3.8936913321581
9	29183	20.8	7.0960556118193
9	29623	20.9	0.973
9	30063	21	6.2943417400718
9	30380	21.1	0.973
9	30820	21.2	4.1698528535226
9	31260	21.3	1.2629851968566
9	31577	21.4	0.973
9	32017	21.5	2.9940204598795
9	32463	21.6	1.5612174594106
9	32786	21.7	4.3416698226521
9	33257	21.8	0.973
9	33822	21.9	0.973
9	34165	22	4.8647963637714
9	34637	22.1	2.2362074357843
9	35202	22.2	0.973
9	35545	22.3	7.7816212135746
9	36017	22.4	2.5202108232171
9	36582	22.5	0.973
9	36925	22.6	5.8074749141338
9	37397	22.7	0.973
9	37962	22.8	2.6415735722094
9	38305	22.9	2.4094671903213
9	38777	23	2.8303442913995
9	39348	23.1	2.3077379151731
9	39697	23.2	5.2730702793745
9	40169	23.3	0.973
9	40741	23.4	1.9546729865452
9	41208	23.5	0.973
9	41909	23.6	2.1511188341101
9	42522	23.7	4.7653810815136
9	43078	23.8	0.973
9	44217	23.9	6.6330271554788
9	45168	24	0.973
9	45724	24.1	4.0459668697023
9	46828	24.2	4.0819153145072
9	47817	24.3	2.7520584539891
9	48373	24.4	0.973
9	49477	24.5	8.8313307005943
9	50421	24.6	0.973
9	50977	24.7	0.973
9	52116	24.8	1.5138147422443
9	53105	24.9	2.5544511370053
9	53667	25	4.5858333470412
9	54760	25.1	0.973
9	55816	25.2	5.03368729093
9	56398	25.3	0.973
9	57572	25.4	2.4302873011534
9	58580	25.5	7.1672898069675
9	59162	25.6	0.973
9	60373	25.7	7.4760319065984
9	61430	25.8	0.973
9	62099	25.9	3.5614312641757
9	63310	26	0.973
9	64327	26.1	0.973
9	64996	26.2	2.7474678325586
9	66207	26.3	7.1222521769873
9	67224	26.4	0.973
9	67899	26.5	0.973
9	69067	26.6	0.973
9	70075	26.7	9.5811010908614
9	70775	26.8	1.2777639720776
9	72012	26.9	0.973
9	73091	27	0.973
9	73885	27.1	7.5901535666094
9	75277	27.2	0.973
9	76504	27.3	2.5774964359144
9	77257	27.4	1.3311920065207
9	78622	27.5	6.2137762686629
9	80018	27.6	0.973
9	80812	27.7	1.6352543391267
9	82175	27.8	1.2064438222997
9	83537	27.9	5.6707016958014
9	84331	28	0.973
9	85740	28.1	5.9775020019812
9	87063	28.2	0.973
9	87835	28.3	3.827769795963
9	89209	28.4	1.5572679332028
9	90643	28.5	2.140703944181
9	91438	28.6	3.3692346220928
9	92916	28.7	0.973
9	94308	28.8	3.2815481485575
9	95196	28.9	6.2832425669662
9	96799	29	3.3108193292498
9	98366	29.1	0.973
9	99254	29.2	4.5222451182921
9	100974	29.3	0.973
9	102472	29.4	1.3467805098053
9	103362	29.5	6.0930285670022
9	105113	29.6	3.6504135500273
9	106599	29.7	0.973
9	107481	29.8	0.973
9	109167	29.9	5.9892136097906
9	110711	30	0.973
9	111609	30.1	6.5599213036811
9	113387	30.2	0.973
9	114943	30.3	0.973
9	115869	30.4	3.1446529566879
9	117677	30.5	7.8034981602703
9	119329	30.6	0.973
9	120254	30.7	3.6080396996633
9	122025	30.8	0.973
9	123688	30.9	7.6769849787856
9	124617	31	0.973
9	126391	31.1	6.2782185708841
9	128117	31.2	0.973
9	129042	31.3	2.9715090959282
9	130930	31.4	4.5949057143385
9	132633	31.5	2.2219866278105
9	133565	31.6	1.5334563865963
9	135352	31.7	3.2110352202109
9	137107	31.8	0.973
9	138072	31.9	4.9079131215429
9	139934	32	2.5854714980726
9	141726	32.1	1.3718569568238
9	142783	32.2	0.973
9	144689	32.3	5.9085011083267
9	146492	32.4	0.973
9	147552	32.5	4.7145910907983
9	149467	32.6	0.973
9	151228	32.7	4.6439358993258
9	152284	32.8	2.3334107580758
9	154114	32.9	2.7006422935578
9	155876	33	0.973
9	156932	33.1	3.3221303611477
9	158679	33.2	0.973
9	160262	33.3	4.9674398427558
9	161257	33.4	0.973
9	163074	33.5	8.17423356659
9	164762	33.6	0.973
9	165894	33.7	5.7866427982429
9	167914	33.8	0.973
9	169705	33.9	2.1709941200628
9	170791	34	3.5795624629871
9	172814	34.1	6.6050108691592
9	174701	34.2	1.3133441481384
9	175833	34.3	0.973
9	177818	34.4	3.770873019172
9	179696	34.5	6.7301314556283
9	180828	34.6	0.973
9	182796	34.7	0.973
9	184684	34.8	8.0846530101778
9	185777	34.9	0.973
9	187843	35	1.732003558144
9	189733	35.1	6.9838524910844
9	190914	35.2	0.973
9	193035	35.3	7.0648428657439
9	195084	35.4	2.1176103811948
9	196218	35.5	0.973
9	198289	35.6	0.973
9	200381	35.7	5.4388733083493
9	201515	35.8	5.5112344852967
9	203487	35.9	0.973
9	205579	36	3.8664462439325
9	206761	36.1	0.973
9	208748	36.2	0.973
9	210794	36.3	0.973
9	211861	36.4	3.2160072301459
9	213874	36.5	7.6078617998198
9	215874	36.6	0.973
9	216889	36.7	5.890136212704
9	218893	36.8	0.973
9	221083	36.9	1.3435635778625
9	222253	37	3.469590317515
9	224478	37.1	4.7233931703411
9	226835	37.2	0.973
9	227954	37.3	1.8804351301681
9	230238	37.4	5.1228863226421
9	232601	37.5	2.5322801024556
9	233819	37.6	0.973
9	236081	37.7	4.2175366900798
9	238423	37.8	1.7263821753232
8	182	1.9	4.7627954241644
8	189	2	4.4032739985084
8	196	2.1	4.5416720705427
8	227	2.2	4.5357366736397
8	234	2.3	3.8221609040784
8	241	2.4	4.4602087377017
8	272	2.5	3.8184577359277
8	279	2.6	4.258432587286
8	286	2.7	2.8686751447376
8	332	2.8	4.6673458560994
8	339	2.9	2.8247818723321
8	346	3	3.815979899955
8	392	3.1	2.9977231187513
8	399	3.2	3.6988062987803
8	406	3.3	3.3028011658462
8	452	3.4	3.1984183710301
8	460	3.5	3.5449505219003
8	469	3.6	2.638327703462
8	529	3.7	4.7352309839334
8	538	3.8	4.3386109714629
8	547	3.9	3.1577045551967
8	607	4	3.5789151291829
8	637	4.1	4.189647489693
8	646	4.2	3.4697606938425
8	706	4.3	4.0337775548687
8	736	4.4	3.2954492553836
8	745	4.5	3.4673413453856
8	805	4.6	3.255922011449
8	835	4.7	2.5754773285007
8	844	4.8	3.3234053157503
8	904	4.9	4.1046195745002
8	934	5	4.2114291258622
8	943	5.1	4.1873819311149
8	1016	5.2	3.9034962165169
8	1054	5.3	4.7448879829608
8	1065	5.4	0.93128474536174
8	1139	5.5	-0.22995522536803
8	1177	5.6	0.022165033151396
8	1188	5.7	0.33512612222694
8	1262	5.8	-0.069519525859505
8	1300	5.9	-0.57635554054286
8	1338	6	0.67905973643065
8	1412	6.1	0.0025071750860661
8	1450	6.2	-0.93138199299574
8	1488	6.3	-0.34048579924274
8	1562	6.4	1.4141443226254
8	1600	6.5	-0.20252193906344
8	1638	6.6	0.00367212574929
8	1712	6.7	-0.73883818520699
8	1757	6.8	-0.69552282744553
8	1803	6.9	0.45875789597631
8	1891	7	-0.16744383552577
8	1937	7.1	1.416474483558
8	1983	7.2	-1.7674262402579
8	2071	7.3	0.79626611550339
8	2117	7.4	-1.0777981916908
8	2163	7.5	0.64830405986868
8	2251	7.6	-0.98142535134684
8	2297	7.7	1.4152256667148
8	2376	7.8	0.43254161893856
8	2464	7.9	-0.56529025314376
8	2510	8	0.37940195063129
8	2589	8.1	-0.94500531384256
8	2677	8.2	-0.51574070588686
8	2723	8.3	0.55516736349091
8	2802	8.4	0.039195544086397
8	2903	8.5	0.42280668742023
8	2957	8.6	0.4671912943013
8	3050	8.7	-1.4761529682437
8	3152	8.8	1.3110138167394
8	3206	8.9	-1.5372877538903
8	3338	9	2.0692446577596
8	3440	9.1	-0.29769256419968
8	3494	9.2	0.4019296093611
8	3626	9.3	-1.8539276125375
8	3728	9.4	0.83206169889309
8	3782	9.5	-0.89154460642021
8	3914	9.6	2.0792772661662
8	4016	9.7	-0.96713245322462
8	4070	9.8	1.0086184955435
8	4202	9.9	-2.3187388782389
8	4304	10	1.1364364466863
8	4358	10.1	0.79640587326139
8	4509	10.2	-1.9328328955453
8	4625	10.3	1.9485639862251
8	4687	10.4	-2.0692555978894
8	4884	10.5	1.0062160447706
8	5000	10.6	0.9437986894045
8	5062	10.7	-1.317900736467
8	5259	10.8	1.6356380737852
8	5375	10.9	-1.5276197966887
8	5437	11	-0.39567524334416
8	5634	11.1	0.79508593596984
8	5750	11.2	0.20141146320384
8	5812	11.3	-0.75591007131152
8	6009	11.4	1.0842391982442
8	6125	11.5	0.12785234837793
8	6187	11.6	-0.45646934770048
8	6384	11.7	-0.68681507545989
8	6513	11.8	0.64776056678966
8	6634	11.9	-0.43628214800265
8	6857	12	-0.25203758967109
8	6987	12.1	0.1065130229108
8	7108	12.2	1.3487884757342
8	7331	12.3	-1.4550884155324
8	7461	12.4	0.038251198129728
8	7582	12.5	0.13607612927444
8	7805	12.6	-0.38943696999922
8	7935	12.7	0.8016115729697
8	8056	12.8	0.73497654346284
8	8279	12.9	-1.2428957608063
8	8409	13	-0.32247231341898
8	8530	13.1	-0.044399257167242
8	8753	13.2	2.1456541877706
8	8883	13.3	-0.73448429058772
8	9004	13.4	-0.27069666422904
8	9252	13.5	-0.013129819417372
8	9396	13.6	0.44784568424802
8	9531	13.7	-0.75307883671485
8	9780	13.8	-0.34645531675778
8	9981	13.9	0.73253507609479
8	10116	14	0.19358784658834
8	10365	14.1	-1.3775907241507
8	10566	14.2	1.9894671265502
8	10701	14.3	-0.30379820149392
8	10950	14.4	-0.046717310324311
8	11151	14.5	-0.68111006927211
8	11286	14.6	-0.44017983949743
8	11535	14.7	1.2543521844782
8	11736	14.8	-2.0314408990089
8	11871	14.9	0.11465252027847
8	12120	15	0.016250810003839
8	12333	15.1	2.1924385201419
8	12481	15.2	-2.3302440403495
8	12756	15.3	0.018230320420116
8	12989	15.4	1.9811500271317
8	13138	15.5	-0.24817400437314
8	13413	15.6	-0.24505706038326
8	13646	15.7	0.64272990915924
8	13795	15.8	-0.33282301505096
8	14070	15.9	0.4116751399124
8	14303	16	0.14009463251568
8	14452	16.1	-0.99254467757419
8	14790	16.2	0.85937472002115
8	15023	16.3	-0.4518974426901
8	15172	16.4	-0.1024708407931
8	15510	16.5	-1.5947884914931
8	15755	16.6	-0.15131128544454
8	15904	16.7	1.8401784682646
8	16273	16.8	0.47765922732651
8	16538	16.9	-0.6651212729048
8	16701	17	-1.286960648722
8	17071	17.1	0.79886573774274
8	17336	17.2	0.16955286031589
8	17499	17.3	0.183738846099
8	17869	17.4	0.25875643128529
8	18134	17.5	0.0045366678386927
8	18366	17.6	-0.25006490002852
8	18736	17.7	0.51114614587277
8	19001	17.8	-1.4288028056035
8	19233	17.9	0.25267535704188
8	19603	18	-0.17827360890806
8	19868	18.1	0.51906820910517
8	20106	18.2	0.73239898250904
8	20476	18.3	-0.44779370422475
8	20747	18.4	0.92998939391691
8	21004	18.5	-2.2566494037164
8	21406	18.6	0.23176804825198
8	21697	18.7	0.70544215792324
8	21955	18.8	0.64382024516817
8	22357	18.9	-0.68915966898203
8	22648	19	1.0422824241687
8	22981	19.1	-0.72071356233209
8	23383	19.2	-0.70263063069433
8	23674	19.3	1.7750455293572
8	24007	19.4	-0.76015416998416
8	24409	19.5	-0.70707344682887
8	24700	19.6	-0.57409474742599
8	25033	19.7	0.37419377011247
8	25435	19.8	1.4749582798686
8	25732	19.9	-0.2433808054775
8	26065	20	0.31725476437714
8	26473	20.1	-0.34138623508625
8	26789	20.2	0.23124943312723
8	27229	20.3	-2.2084985923721
8	27669	20.4	2.3027300887043
8	27986	20.5	-1.3891435274854
8	28426	20.6	-0.54697028710507
8	28866	20.7	0.56751919153612
8	29183	20.8	1.5127514034975
8	29623	20.9	-1.2923555920133
8	30063	21	1.2736497254809
8	30380	21.1	-1.377481201198
8	30820	21.2	0.64497482846491
8	31260	21.3	-0.22719078580849
8	31577	21.4	-0.62445742019918
8	32017	21.5	0.29492986155674
8	32463	21.6	-0.13657849631272
8	32786	21.7	0.6965188117465
8	33257	21.8	-0.31385567912366
8	33822	21.9	-0.36474420805462
8	34165	22	0.85193395323586
8	34637	22.1	0.063759337062947
8	35202	22.2	-1.9246445555473
8	35545	22.3	1.7283450218383
8	36017	22.4	0.14904798706993
8	36582	22.5	-0.78192178625613
8	36925	22.6	1.1304221214959
8	37397	22.7	-1.4824815234169
8	37962	22.8	0.18957559077535
8	38305	22.9	0.11906447471119
8	38777	23	0.24478947976604
8	39348	23.1	0.087170930928551
8	39697	23.2	0.96937114314642
8	40169	23.3	-1.4920007518958
8	40741	23.4	-0.017461718525738
8	41208	23.5	-0.39635253488086
8	41909	23.6	0.043043335317634
8	42522	23.7	0.82702563784551
8	43078	23.8	-1.1006157926749
8	44217	23.9	1.3853543897858
8	45168	24	-0.98743593960535
8	45724	24.1	0.61120615631808
8	46828	24.2	0.61738594376948
8	47817	24.3	0.21769094339106
8	48373	24.4	-2.0664573105751
8	49477	24.5	2.0378996920772
8	50421	24.6	-0.83314708783291
8	50977	24.7	-0.58552715578116
8	52116	24.8	-0.14985493500717
8	53105	24.9	0.16457054705825
8	53667	25	0.77227194793522
8	54760	25.1	-1.3084485172294
8	55816	25.2	0.91080032580066
8	56398	25.3	-0.55223972187378
8	57572	25.4	0.12721638951916
8	58580	25.5	1.5385115332901
8	59162	25.6	-1.9812389917206
8	60373	25.7	1.6360101266764
8	61430	25.8	-0.36742567783222
8	62099	25.9	0.46120584011078
8	63310	26	-1.0290780774085
8	64327	26.1	-0.29785467777401
8	64996	26.2	0.22233405150473
8	66207	26.3	1.522699391935
8	67224	26.4	-0.51062041311525
8	67899	26.5	-0.4803211305989
8	69067	26.6	-1.2993532588007
8	70075	26.7	2.2581464558607
8	70775	26.8	-0.22356039437
8	72012	26.9	-0.56999905151315
8	73091	27	-0.94328707200475
8	73885	27.1	1.6641073045321
8	75277	27.2	-1.654604091309
8	76504	27.3	0.17125558108091
8	77257	27.4	-0.20519621146377
8	78622	27.5	1.2576789496234
8	80018	27.6	-1.1988259432837
8	80812	27.7	-0.11301836930215
8	82175	27.8	-0.24259021680336
8	83537	27.9	1.099746763939
8	84331	28	-0.41571303852834
8	85740	28.1	1.1831681150943
8	87063	28.2	-0.81193232268561
8	87835	28.3	0.54156442231033
8	89209	28.4	-0.13911178451963
8	90643	28.5	0.035927349817939
8	91438	28.6	0.40226347220596
8	92916	28.7	-1.7282133590197
8	94308	28.8	0.3838068904588
8	95196	28.9	1.2751813564682
8	96799	29	0.382960770512
8	98366	29.1	-1.3593397295335
8	99254	29.2	0.74982046324294
8	100974	29.3	-1.0708025371423
8	102472	29.4	-0.20052705775015
8	103362	29.5	1.221502784756
8	105113	29.6	0.48549645289313
8	106599	29.7	-1.1406415002421
8	107481	29.8	-1.0642157983966
8	109167	29.9	1.1964653851464
8	110711	30	-0.39268762920983
8	111609	30.1	1.3559214014094
8	113387	30.2	-0.7368887506891
8	114943	30.3	-1.3337516330648
8	115869	30.4	0.34402966499329
8	117677	30.5	1.7278121504933
8	119329	30.6	-1.4253841363825
8	120254	30.7	0.4792437760625
8	122025	30.8	-0.80559583439026
8	123688	30.9	1.6909030626994
8	124617	31	-1.6809293039842
8	126391	31.1	1.2773436214775
8	128117	31.2	-1.5527670260053
8	129042	31.3	0.29158460209146
8	130930	31.4	0.77643022465054
8	132633	31.5	0.06167798070237
8	133565	31.6	-0.14527270453982
8	135352	31.7	0.35816839837935
8	137107	31.8	-0.87276572128758
8	138072	31.9	0.86816184862982
8	139934	32	0.16946878982708
8	141726	32.1	-0.19449836807325
8	142783	32.2	-0.30866331246216
8	144689	32.3	1.1594213516219
8	146492	32.4	-1.1930546088843
8	147552	32.5	0.80616471124813
8	149467	32.6	-0.99666334746871
8	151228	32.7	0.78682678577025
8	152284	32.8	0.093241737340577
8	154114	32.9	0.20243831502739
8	155876	33	-0.3675344894873
8	156932	33.1	0.38838698994368
8	158679	33.2	-1.4701439632336
8	160262	33.3	0.88641281472519
8	161257	33.4	-1.2560779554769
8	163074	33.5	1.8408473121235
8	164762	33.6	-1.1684612935642
8	165894	33.7	1.1265947308857
8	167914	33.8	-1.4926780061796
8	169705	33.9	0.048802371602505
8	170791	34	0.47196255763993
8	172814	34.1	1.3665529055288
8	174701	34.2	-0.2131544839358
8	175833	34.3	-2.0262871182058
8	177818	34.4	0.53200477792416
8	179696	34.5	1.4078566327225
8	180828	34.6	-1.1359756492311
8	182796	34.7	-0.62446980562527
8	184684	34.8	1.8123382207705
8	185777	34.9	-1.5861068095546
8	187843	35	-0.083840473089367
8	189733	35.1	1.4855995844118
8	190914	35.2	-1.4282684365753
8	193035	35.3	1.5087368560489
8	195084	35.4	0.027716865879484
8	196218	35.5	-1.656412788434
8	198289	35.6	-0.43738476873841
8	200381	35.7	1.0328362992732
8	201515	35.8	1.0435626353137
8	203487	35.9	-0.55350472219288
8	205579	36	0.55125561542809
8	206761	36.1	-1.0957899480127
8	208748	36.2	-0.35351425292902
8	210794	36.3	-0.6423113954952
8	211861	36.4	0.3663278510794
8	213874	36.5	1.6719701880356
8	215874	36.6	-1.331556205987
8	216889	36.7	1.1595707433298
8	218893	36.8	-1.2477747234516
8	221083	36.9	-0.20128979871515
8	222253	37	0.44011650432367
8	224478	37.1	0.81152056984138
8	226835	37.2	-0.98359671246726
8	227954	37.3	-0.039254198200069
8	230238	37.4	0.93235108652152
8	232601	37.5	0.15339254168794
8	233819	37.6	-0.8888752234634
8	236081	37.7	0.66093091620132
8	238423	37.8	-0.087705423356965
7	151	1.8	0.49318359263707
7	182	1.9	0.96946313505351
7	189	2	1.4097905349043
7	196	2.1	1.8639577419586
7	227	2.2	2.3175314093226
7	234	2.3	2.6997474997304
7	241	2.4	3.1457683735006
7	272	2.5	3.5276141470934
7	279	2.6	3.953457405822
7	286	2.7	4.2403249202957
7	332	2.8	4.7070595059057
7	339	2.9	4.9895376931389
7	346	3	5.3711356831344
7	392	3.1	5.6709079950095
7	399	3.2	6.0407886248875
7	406	3.3	6.3710687414722
7	452	3.4	6.6909105785752
7	460	3.5	7.0454056307652
7	469	3.6	7.3092384011114
7	529	3.7	7.7827614995047
7	538	3.8	8.216622596651
7	547	3.9	8.5323930521707
7	607	4	8.890284565089
7	637	4.1	9.3092493140583
7	646	4.2	9.6562253834425
7	706	4.3	10.059603138929
7	736	4.4	10.389148064468
7	745	4.5	10.735882199006
7	805	4.6	11.061474400151
7	835	4.7	11.319022133001
7	844	4.8	11.651362664576
7	904	4.9	12.061824622026
7	934	5	12.482967534613
7	943	5.1	12.901705727724
7	1016	5.2	13.292055349376
7	1054	5.3	13.766544147672
7	1065	5.4	13.859672622208
7	1139	5.5	13.836677099671
7	1177	5.6	13.838893602986
7	1188	5.7	13.872406215209
7	1262	5.8	13.865454262623
7	1300	5.9	13.807818708569
7	1338	6	13.875724682212
7	1412	6.1	13.87597539972
7	1450	6.2	13.782837200421
7	1488	6.3	13.748788620497
7	1562	6.4	13.890203052759
7	1600	6.5	13.869950858853
7	1638	6.6	13.870318071428
7	1712	6.7	13.796434252907
7	1757	6.8	13.726881970163
7	1803	6.9	13.77275775976
7	1891	7	13.756013376208
7	1937	7.1	13.897660824563
7	1983	7.2	13.720918200538
7	2071	7.3	13.800544812088
7	2117	7.4	13.692764992919
7	2163	7.5	13.757595398906
7	2251	7.6	13.659452863771
7	2297	7.7	13.800975430442
7	2376	7.8	13.844229592336
7	2464	7.9	13.787700567022
7	2510	8	13.825640762085
7	2589	8.1	13.731140230701
7	2677	8.2	13.679566160112
7	2723	8.3	13.735082896461
7	2802	8.4	13.73900245087
7	2903	8.5	13.781283119612
7	2957	8.6	13.828002249042
7	3050	8.7	13.680386952218
7	3152	8.8	13.811488333892
7	3206	8.9	13.657759558503
7	3338	9	13.864684024279
7	3440	9.1	13.834914767859
7	3494	9.2	13.875107728795
7	3626	9.3	13.689714967541
7	3728	9.4	13.77292113743
7	3782	9.5	13.683766676788
7	3914	9.6	13.891694403405
7	4016	9.7	13.794981158082
7	4070	9.8	13.895843007637
7	4202	9.9	13.663969119813
7	4304	10	13.777612764481
7	4358	10.1	13.857253351808
7	4509	10.2	13.663970062253
7	4625	10.3	13.858826460876
7	4687	10.4	13.651900901087
7	4884	10.5	13.752522505564
7	5000	10.6	13.846902374504
7	5062	10.7	13.715112300857
7	5259	10.8	13.878676108236
7	5375	10.9	13.725914128567
7	5437	11	13.686346604233
7	5634	11.1	13.76585519783
7	5750	11.2	13.78599634415
7	5812	11.3	13.710405337019
7	6009	11.4	13.818829256843
7	6125	11.5	13.831614491681
7	6187	11.6	13.785967556911
7	6384	11.7	13.717286049365
7	6513	11.8	13.782062106044
7	6634	11.9	13.738433891244
7	6857	12	13.713230132277
7	6987	12.1	13.723881434568
7	7108	12.2	13.858760282141
7	7331	12.3	13.713251440588
7	7461	12.4	13.717076560401
7	7582	12.5	13.730684173328
7	7805	12.6	13.691740476328
7	7935	12.7	13.771901633625
7	8056	12.8	13.845399287972
7	8279	12.9	13.721109711891
7	8409	13	13.688862480549
7	8530	13.1	13.684422554832
7	8753	13.2	13.898987973609
7	8883	13.3	13.825539544551
7	9004	13.4	13.798469878128
7	9252	13.5	13.797156896186
7	9396	13.6	13.841941464611
7	9531	13.7	13.766633580939
7	9780	13.8	13.731988049264
7	9981	13.9	13.805241556873
7	10116	14	13.824600341532
7	10365	14.1	13.686841269117
7	10566	14.2	13.885787981772
7	10701	14.3	13.855408161622
7	10950	14.4	13.85073643059
7	11151	14.5	13.782625423663
7	11286	14.6	13.738607439713
7	11535	14.7	13.864042658161
7	11736	14.8	13.66089856826
7	11871	14.9	13.672363820288
7	12120	15	13.673988901288
7	12333	15.1	13.893232753302
7	12481	15.2	13.660208349267
7	12756	15.3	13.662031381309
7	12989	15.4	13.860146384023
7	13138	15.5	13.835328983585
7	13413	15.6	13.810823277547
7	13646	15.7	13.875096268463
7	13795	15.8	13.841813966958
7	14070	15.9	13.882981480949
7	14303	16	13.896990944201
7	14452	16.1	13.797736476443
7	14790	16.2	13.883673948445
7	15023	16.3	13.838484204176
7	15172	16.4	13.828237120097
7	15510	16.5	13.668758270948
7	15755	16.6	13.653627142403
7	15904	16.7	13.83764498923
7	16273	16.8	13.885410911962
7	16538	16.9	13.818898784672
7	16701	17	13.6902027198
7	17071	17.1	13.770089293574
7	17336	17.2	13.787044579606
7	17499	17.3	13.805418464215
7	17869	17.4	13.831294107344
7	18134	17.5	13.831747774128
7	18366	17.6	13.806741284125
7	18736	17.7	13.857855898712
7	19001	17.8	13.714975618152
7	19233	17.9	13.740243153856
7	19603	18	13.722415792965
[...]
134	448556	47.4	0.973
134	450048	47.5	1.8340725221124
134	452925	47.6	5.9057766987502
134	455779	47.7	0.973
134	457271	47.8	5.4727146627579
134	460133	47.9	0.973
134	462895	48	1.8190366613773
134	464351	48.1	2.7063359367715
134	467131	48.2	3.5370535691258
134	469898	48.3	4.7211337309463
134	471338	48.4	1.9454968478228
134	474124	48.5	0.973
134	476987	48.6	2.7962498778711
134	478498	48.7	5.7762372212431
134	481330	48.8	0.973
134	484377	48.9	0.973
134	485825	49	4.5883528794772
134	488633	49.1	2.2818341771717
134	491650	49.2	0.973
134	493131	49.3	6.2794644850532
134	495998	49.4	1.5017000307157
134	498950	49.5	1.4163083036697
134	500501	49.6	0.973
134	503324	49.7	2.9519773988151
134	506263	49.8	0.973
134	507673	49.9	4.3695083804926
134	510443	50	2.937903479835
134	513417	50.1	0.973
134	514873	50.2	3.1277769364711
134	517694	50.3	5.9718077581725
134	520721	50.4	0.973
134	522220	50.5	2.0681187595044
134	525145	50.6	0.973
134	528308	50.7	1.6502976159544
134	529755	50.8	3.9891297805812
135	394048	45.1	20.05
135	396805	45.2	20.05
135	399607	45.3	20.05
135	401151	45.4	20.05
135	403917	45.5	20.05
135	406712	45.6	20.05
135	408164	45.7	20.05
135	410937	45.8	20.05
135	413793	45.9	20.05
135	415325	46	20.05
135	418195	46.1	20.05
135	421029	46.2	20.05
135	422524	46.3	20.05
135	425297	46.4	20.05
135	427927	46.5	20.05
135	429308	46.6	20.05
135	431935	46.7	20.05
135	434535	46.8	20.05
135	435945	46.9	20.05
135	438772	47	20.05
135	441306	47.1	20.05
135	442848	47.2	20.05
135	445680	47.3	20.05
135	448556	47.4	20.05
135	450048	47.5	20.05
135	452925	47.6	20.05
135	455779	47.7	20.05
135	457271	47.8	20.05
135	460133	47.9	20.05
135	462895	48	20.05
135	464351	48.1	20.05
135	467131	48.2	20.05
135	469898	48.3	20.05
135	471338	48.4	20.05
135	474124	48.5	20.05
135	476987	48.6	20.05
135	478498	48.7	20.05
135	481330	48.8	20.05
135	484377	48.9	20.05
135	485825	49	20.05
135	488633	49.1	20.05
135	491650	49.2	20.05
135	493131	49.3	20.05
135	495998	49.4	20.05
135	498950	49.5	20.05
135	500501	49.6	20.05
135	503324	49.7	20.05
135	506263	49.8	20.05
135	507673	49.9	20.05
135	510443	50	20.05
135	513417	50.1	20.05
135	514873	50.2	20.05
135	517694	50.3	20.05
135	520721	50.4	20.05
135	522220	50.5	20.05
135	525145	50.6	20.05
135	528308	50.7	20.05
135	529755	50.8	20.05
136	394048	45.1	39.95
136	396805	45.2	39.95
136	399607	45.3	39.997964270822
136	401151	45.4	40.092090753278
136	403917	45.5	40.230262420145
136	406712	45.6	40.412028157831
136	408164	45.7	40.636411271856
136	410937	45.8	40.907057345487
136	413793	45.9	41.225090524097
136	415325	46	41.577826336317
136	418195	46.1	41.969772845963
136	421029	46.2	42.402594255111
136	422524	46.3	42.875923669912
136	425297	46.4	43.39316027903
136	427927	46.5	43.951581985289
136	429308	46.6	44.550301215718
136	431935	46.7	45.195843292474
136	434535	46.8	45.884446135523
136	435945	46.9	46.62226666548
136	438772	47	47.394669839055
136	441306	47.1	48.209165713625
136	442848	47.2	49.070943624513
136	445680	47.3	49.982678089594
136	448556	47.4	50.929665851507
136	450048	47.5	51.903572817487
136	452925	47.6	52.910188143519
136	455779	47.7	53.951447861141
136	457271	47.8	55.037183052932
136	460133	47.9	56.160123080845
136	462895	48	57.331630821752
136	464351	48.1	58.545270367525
136	467131	48.2	59.792454481307
136	469898	48.3	61.073112895599
136	471338	48.4	62.390772815024
136	474124	48.5	63.753406321251
136	476987	48.6	65.132553634481
136	478498	48.7	66.514656018455
136	481330	48.8	67.892088878788
136	484377	48.9	69.271908132711
136	485825	49	70.661160701001
136	488633	49.1	72.027708806398
136	491650	49.2	73.408562219493
136	493131	49.3	74.793219539813
136	495998	49.4	76.170057800385
136	498950	49.5	77.556107225659
136	500501	49.6	78.941763411134
136	503324	49.7	80.325756856084
136	506263	49.8	81.713777864735
136	507673	49.9	83.087132688893
136	510443	50	84.476699120103
136	513417	50.1	85.842355008852
136	514873	50.2	87.21820018426
136	517694	50.3	88.606885896412
136	520721	50.4	89.973506310526
136	522220	50.5	91.342474308889
136	525145	50.6	92.729348387217
136	528308	50.7	94.114451663273
136	529755	50.8	95.491623147093
137	396805	45.2	0.4796427082154
137	399607	45.3	0.94126482456764
137	401151	45.4	1.3817166686699
137	403917	45.5	1.817657376862
137	406712	45.6	2.2438311402492
137	408164	45.7	2.7064607363098
137	410937	45.8	3.1803317860963
137	413793	45.9	3.5273581221955
137	415325	46	3.9194650964652
137	418195	46.1	4.3282140914798
137	421029	46.2	4.7332941480122
137	422524	46.3	5.1723660911808
137	425297	46.4	5.5842170625834
137	427927	46.5	5.9871923042952
137	429308	46.6	6.4554207675533
137	431935	46.7	6.886028430497
137	434535	46.8	7.3782052995662
137	435945	46.9	7.7240317357496
137	438772	47	8.1449587457023
137	441306	47.1	8.6177791088844
137	442848	47.2	9.1173446508033
137	445680	47.3	9.4698776191358
137	448556	47.4	9.7390696598009
137	450048	47.5	10.066153260311
137	452925	47.6	10.412597176226
137	455779	47.7	10.857351917904
137	457271	47.8	11.229400279131
137	460133	47.9	11.715077409069
137	462895	48	12.136395457739
137	464351	48.1	12.471841137812
137	467131	48.2	12.806584142919
137	469898	48.3	13.176599194252
137	471338	48.4	13.626335062275
137	474124	48.5	13.791473132302
137	476987	48.6	13.821023839735
137	478498	48.7	13.774328603328
137	481330	48.8	13.798192539229
137	484377	48.9	13.892525682901
137	485825	49	13.665481053968
137	488633	49.1	13.808534130955
137	491650	49.2	13.846573203197
137	493131	49.3	13.768382605724
137	495998	49.4	13.860494252737
137	498950	49.5	13.856561854749
137	500501	49.6	13.839934449503
137	503324	49.7	13.880210086505
137	506263	49.8	13.733548241586
137	507673	49.9	13.895664312097
137	510443	50	13.656558887486
137	513417	50.1	13.758451754088
137	514873	50.2	13.886857121519
137	517694	50.3	13.666204141139
137	520721	50.4	13.689679983631
137	522220	50.5	13.868740783283
137	525145	50.6	13.851032760553
137	528308	50.7	13.771714838198
137	529755	50.8	13.694029446552
138	399607	45.3	4.6162211635224
138	401151	45.4	4.4045184410226
138	403917	45.5	4.3594070819214
138	406712	45.6	4.261737633872
138	408164	45.7	4.6262959606054
138	410937	45.8	4.738710497865
138	413793	45.9	3.4702633609918
138	415325	46	3.9210697426976
138	418195	46.1	4.0874899501459
138	421029	46.2	4.0508005653243
138	422524	46.3	4.3907194316853
138	425297	46.4	4.118509714026
138	427927	46.5	4.0297524171183
138	429308	46.6	4.6822846325813
138	431935	46.7	4.3060766294366
138	434535	46.8	4.9217686906923
138	435945	46.9	3.4582643618342
138	438772	47	4.2092700995272
138	441306	47.1	4.7282036318211
138	442848	47.2	4.9956554191886
138	445680	47.3	3.5253296833253
138	448556	47.4	2.6919204066508
138	450048	47.5	3.2708360051038
138	452925	47.6	3.4644391591428
138	455779	47.7	4.4475474167848
138	457271	47.8	3.7204836122692
138	460133	47.9	4.8567712993827
138	462895	48	4.2131804866949
138	464351	48.1	3.3544568007346
138	467131	48.2	3.3474300510716
138	469898	48.3	3.700150513323
138	471338	48.4	4.4973586802371
138	474124	48.5	1.6513807002671
138	476987	48.6	0.29550707433373
138	478498	48.7	-0.46695236407686
138	481330	48.8	0.23863935901318
138	484377	48.9	0.94333143671975
138	485825	49	-2.2704462893307
138	488633	49.1	1.4305307698669
138	491650	49.2	0.380390722421
138	493131	49.3	-0.78190597472712
138	495998	49.4	0.92111647012644
138	498950	49.5	-0.039323979872279
138	500501	49.6	-0.16627405246254
138	503324	49.7	0.40275637002196
138	506263	49.8	-1.4666184491944
138	507673	49.9	1.6211607051082
138	510443	50	-2.391054246109
138	513417	50.1	1.018928666017
138	514873	50.2	1.284053674317
138	517694	50.3	-2.2065298038069
138	520721	50.4	0.23475842492189
138	522220	50.5	1.7906079965178
138	525145	50.6	-0.17708022729494
138	528308	50.7	-0.79317922354676
138	529755	50.8	-0.7768539164681
139	399607	45.3	2.2026495251806
139	401151	45.4	2.6435746655232
139	403917	45.5	3.1079004908169
139	406712	45.6	3.5238773632403
139	408164	45.7	4.2599251411017
139	410937	45.8	4.89842266362
139	413793	45.9	4.2342617651891
139	415325	46	5.0084448148004
139	418195	46.1	5.5899424581676
139	421029	46.2	5.9689754116495
139	422524	46.3	6.8455065673849
139	425297	46.4	6.9381442415462
139	427927	46.5	7.2332320271226
139	429308	46.6	8.7307549472953
139	431935	46.7	8.6184209591754
139	434535	46.8	10.254659560385
139	435945	46.9	7.962707634886
139	438772	47	9.8153526077554
139	441306	47.1	11.404779067748
139	442848	47.2	12.596687607814
139	445680	47.3	9.6909294175959
139	448556	47.4	7.9833961974822
139	450048	47.5	9.6246771179823
139	452925	47.6	10.410383490191
139	455779	47.7	13.389542797431
139	457271	47.8	11.851207432895
139	460133	47.9	15.535949149011
139	462895	48	14.183606460606
139	464351	48.1	11.973389319027
139	467131	48.2	12.253285137239
139	469898	48.3	13.707031095859
139	471338	48.4	16.770148362661
139	474124	48.5	7.5063976463512
139	476987	48.6	3.0049105103053
139	478498	48.7	0.973
139	481330	48.8	2.8118706038861
139	484377	48.9	5.1862366599852
139	485825	49	0.973
139	488633	49.1	6.7799541701436
139	491650	49.2	3.2925764041666
139	493131	49.3	0.973
139	495998	49.4	5.1014935859716
139	498950	49.5	1.892896626547
139	500501	49.6	1.4679360484324
139	503324	49.7	3.3738903257887
139	506263	49.8	0.973
139	507673	49.9	7.4572215312172
139	510443	50	0.973
139	513417	50.1	5.3928501217482
139	514873	50.2	6.3246776338432
139	517694	50.3	0.973
139	520721	50.4	2.7819104915054
139	522220	50.5	8.0103207331507
139	525145	50.6	1.4325442317468
139	528308	50.7	0.973
139	529755	50.8	0.973
140	431935	46.7	20.05
140	434535	46.8	20.05
140	435945	46.9	20.05
140	438772	47	20.05
140	441306	47.1	20.05
140	442848	47.2	20.05
140	445680	47.3	20.05
140	448556	47.4	20.05
140	450048	47.5	20.05
140	452925	47.6	20.05
140	455779	47.7	20.05
140	457271	47.8	20.05
140	460133	47.9	20.05
140	462895	48	20.05
140	464351	48.1	20.05
140	467131	48.2	20.05
140	469898	48.3	20.05
140	471338	48.4	20.05
140	474124	48.5	20.05
140	476987	48.6	20.05
140	478498	48.7	20.05
140	481330	48.8	20.05
140	484377	48.9	20.05
140	485825	49	20.05
140	488633	49.1	20.05
140	491650	49.2	20.05
140	493131	49.3	20.05
140	495998	49.4	20.05
140	498950	49.5	20.05
140	500501	49.6	20.05
140	503324	49.7	20.05
140	506263	49.8	20.05
140	507673	49.9	20.05
140	510443	50	20.05
140	513417	50.1	20.05
140	514873	50.2	20.05
140	517694	50.3	20.05
140	520721	50.4	20.05
140	522220	50.5	20.05
140	525145	50.6	20.05
140	528308	50.7	20.05
140	529755	50.8	20.05
141	431935	46.7	39.95
141	434535	46.8	39.95
141	435945	46.9	39.997501433915
141	438772	47	40.092679389532
141	441306	47.1	40.232264082447
141	442848	47.2	40.412725990901
141	445680	47.3	40.641313134644
141	448556	47.4	40.915925731021
141	450048	47.5	41.230876776814
141	452925	47.6	41.592368563637
141	455779	47.7	41.998238296597
141	457271	47.8	42.445756270279
141	460133	47.9	42.926668113593
141	462895	48	43.451927516748
141	464351	48.1	44.024780501802
141	467131	48.2	44.629777487539
141	469898	48.3	45.282501325041
141	471338	48.4	45.966634094575
141	474124	48.5	46.688905532168
141	476987	48.6	47.44374269915
141	478498	48.7	48.237953124133
141	481330	48.8	49.063268341858
141	484377	48.9	49.926496441778
141	485825	49	50.833255774793
141	488633	49.1	51.787187023573
141	491650	49.2	52.779551444774
141	493131	49.3	53.81591815662
141	495998	49.4	54.884459951105
141	498950	49.5	55.99820697756
141	500501	49.6	57.157662983577
141	503324	49.7	58.348048919882
141	506263	49.8	59.584809466619
141	507673	49.9	60.860114515192
141	510443	50	62.183578397533
141	513417	50.1	63.542715964746
141	514873	50.2	64.917690293559
141	517694	50.3	66.30283947274
141	520721	50.4	67.675222421815
141	522220	50.5	69.062299115039
141	525145	50.6	70.428668497107
141	528308	50.7	71.801903546343
141	529755	50.8	73.180137966394
142	434535	46.8	0.47501433915459
142	435945	46.9	0.95177955616295
142	438772	47	1.395846929154
142	441306	47.1	1.8046190845438
142	442848	47.2	2.2858714374272
142	445680	47.3	2.7461259637672
142	448556	47.4	3.149510457934
142	450048	47.5	3.6149178682304
142	452925	47.6	4.058697329595
142	455779	47.7	4.4751797368169
142	457271	47.8	4.8091184331436
142	460133	47.9	5.2525940315548
142	462895	48	5.7285298505315
142	464351	48.1	6.0499698573706
142	467131	48.2	6.5272383750283
142	469898	48.3	6.8413276953373
142	471338	48.4	7.222714375924
142	474124	48.5	7.548371669823
142	476987	48.6	7.94210424983
142	478498	48.7	8.2531521772483
142	481330	48.8	8.6322809991992
142	484377	48.9	9.0675933301548
142	485825	49	9.539312487804
142	488633	49.1	9.923644212003
142	491650	49.2	10.363667118466
142	493131	49.3	10.685417944843
142	495998	49.4	11.137470264556
142	498950	49.5	11.594560060171
142	500501	49.6	11.903859363041
142	503324	49.7	12.367605467372
142	506263	49.8	12.753050485729
142	507673	49.9	13.234638823416
142	510443	50	13.591375672129
142	513417	50.1	13.749743288127
142	514873	50.2	13.851491791813
142	517694	50.3	13.72382949075
142	520721	50.4	13.870766932238
142	522220	50.5	13.663693820685
142	525145	50.6	13.732350492361
142	528308	50.7	13.782344200509
142	529755	50.8	13.818506610731
143	435945	46.9	4.7676521700837
143	438772	47	4.4406737299106
143	441306	47.1	4.0877215538976
143	442848	47.2	4.8125235288343
143	445680	47.3	4.6025452633997
143	448556	47.4	4.0338449416686
143	450048	47.5	4.6540741029636
143	452925	47.6	4.4377946136456
143	455779	47.7	4.1648240722195
143	457271	47.8	3.339386963267
143	460133	47.9	4.4347559841117
143	462895	48	4.7593581897672
143	464351	48.1	3.2144000683911
143	467131	48.2	4.7726851765765
143	469898	48.3	3.1408932030899
143	471338	48.4	3.8138668058673
143	474124	48.5	3.2565729389898
143	476987	48.6	3.9373258000705
143	478498	48.7	3.1104792741826
143	481330	48.8	3.7912882195087
143	484377	48.9	4.3531233095564
143	485825	49	4.717191576492
143	488633	49.1	3.84331724199
143	491650	49.2	4.4002290646313
143	493131	49.3	3.2175082637696
143	495998	49.4	4.520523197134
143	498950	49.5	4.5708979561459
143	500501	49.6	3.0929930286948
143	503324	49.7	4.6374610433122
143	506263	49.8	3.8544501835713
143	507673	49.9	4.8158833768684
143	510443	50	3.567368487129
143	513417	50.1	1.5836761599812
143	514873	50.2	1.0174850368639
143	517694	50.3	-1.2766230106354
143	520721	50.4	1.4693744148826
143	522220	50.5	-2.0707311155275
143	525145	50.6	0.68656671675853
143	528308	50.7	0.49993708147667
143	529755	50.8	0.3616241022246
144	435945	46.9	2.2495921768589
144	438772	47	2.6714255845113
144	441306	47.1	2.9754017956599
144	442848	47.2	3.8725690541717
144	445680	47.3	4.2904259409459
144	448556	47.4	4.326635897142
144	450048	47.5	5.3433545176995
144	452925	47.6	5.6527792210277
144	455779	47.7	5.8260012182654
144	457271	47.8	5.222607855771
144	460133	47.9	6.9906199212731
144	462895	48	7.9743646131783
144	464351	48.1	6.1090397619008
144	467131	48.2	8.9583051768526
144	469898	48.3	6.6481843530256
144	471338	48.4	8.1319307525384
144	474124	48.5	7.4380840481689
144	476987	48.6	9.0756327517027
144	478498	48.7	7.7468370959448
144	481330	48.8	9.4731626551098
144	484377	48.9	11.129130474524
144	485825	49	12.495069366314
144	488633	49.1	10.870666304359
144	491650	49.2	12.702976431146
144	493131	49.3	10.023851962715
144	495998	49.4	13.908569007269
144	498950	49.5	14.585722395578
144	500501	49.6	10.71333830767
144	503324	49.7	15.70375180911
144	506263	49.8	13.763411191675
144	507673	49.9	17.323075470491
144	510443	50	13.682573484532
144	513417	50.1	7.2612320652132
144	514873	50.2	5.4202803319309
144	517694	50.3	0.973
144	520721	50.4	6.9375636213826
144	522220	50.5	0.973
144	525145	50.6	4.2838641352061
144	528308	50.7	3.6772714772472
144	529755	50.8	3.2246634737276
145	471338	48.4	20.05
145	474124	48.5	20.05
145	476987	48.6	20.05
145	478498	48.7	20.05
145	481330	48.8	20.05
145	484377	48.9	20.05
145	485825	49	20.05
145	488633	49.1	20.05
145	491650	49.2	20.05
145	493131	49.3	20.05
145	495998	49.4	20.05
145	498950	49.5	20.05
145	500501	49.6	20.05
145	503324	49.7	20.05
145	506263	49.8	20.05
145	507673	49.9	20.05
145	510443	50	20.05
145	513417	50.1	20.05
145	514873	50.2	20.05
145	517694	50.3	20.05
145	520721	50.4	20.05
145	522220	50.5	20.05
145	525145	50.6	20.05
145	528308	50.7	20.05
145	529755	50.8	20.05
146	471338	48.4	39.95
146	474124	48.5	39.95
146	476987	48.6	39.997996866844
146	478498	48.7	40.092202834339
146	481330	48.8	40.235065389036
146	484377	48.9	40.425090460565
146	485825	49	40.656706667163
146	488633	49.1	40.92743279563
146	491650	49.2	41.232595833036
146	493131	49.3	41.57422302454
146	495998	49.4	41.952999516854
146	498950	49.5	42.379914934363
146	500501	49.6	42.846340620013
146	503324	49.7	43.354633144386
146	506263	49.8	43.889488474111
146	507673	49.9	44.458993787559
146	510443	50	45.07806685973
146	513417	50.1	45.736014889768
146	514873	50.2	46.426158284677
146	517694	50.3	47.149250333562
146	520721	50.4	47.917869496671
146	522220	50.5	48.712162503886
146	525145	50.6	49.541956705079
146	528308	50.7	50.41813272499
146	529755	50.8	51.328291714821
147	474124	48.5	0.47996866843896
147	476987	48.6	0.94205967494681
147	478498	48.7	1.4286255469794
147	481330	48.8	1.9002507152833
147	484377	48.9	2.3161620659802
147	485825	49	2.7072612846677
147	488633	49.1	3.0516303740618
147	491650	49.2	3.4162719150444
147	493131	49.3	3.7877649231375
147	495998	49.4	4.2691541750904
147	498950	49.5	4.6642568565041
147	500501	49.6	5.082925243729
147	503324	49.7	5.3485532972447
147	506263	49.8	5.6950531344812
147	507673	49.9	6.1907307217081
147	510443	50	6.5794803003848
147	513417	50.1	6.9014339490861
147	514873	50.2	7.2309204888481
147	517694	50.3	7.686191631092
147	520721	50.4	7.9429300721569
147	522220	50.5	8.2979420119265
147	525145	50.6	8.7617601991116
147	528308	50.7	9.1015898983061
147	529755	50.8	9.5394823012941
148	476987	48.6	4.6209100650785
148	478498	48.7	4.8656587203258
148	481330	48.8	4.7162516830394
148	484377	48.9	4.159113506969
148	485825	49	3.9109921868751
148	488633	49.1	3.4436908939407
148	491650	49.2	3.6464154098257
148	493131	49.3	3.7149300809311
148	495998	49.4	4.8138925195287
148	498950	49.5	3.9510268141374
148	500501	49.6	4.186683872249
148	503324	49.7	2.6562805351568
148	506263	49.8	3.4649983723648
148	507673	49.9	4.9567758722696
148	510443	50	3.8874957867665
148	513417	50.1	3.2195364870131
148	514873	50.2	3.29486539762
148	517694	50.3	4.5527114224387
148	520721	50.4	2.5673844106495
148	522220	50.5	3.5501193976961
148	525145	50.6	4.638181871851
148	528308	50.7	3.3982969919452
148	529755	50.8	4.3789240298793
149	476987	48.6	2.2046368937758
149	478498	48.7	2.8544265017052
149	481330	48.8	3.3621585849383
149	484377	48.9	3.5444760980692
149	485825	49	3.794158020971
149	488633	49.1	3.79247397315
149	491650	49.2	4.2806565166912
149	493131	49.3	4.6889209147379
149	495998	49.4	6.2759829271502
149	498950	49.5	5.7856711872554
149	500501	49.6	6.4959566709709
149	503324	49.7	4.8060979325028
149	506263	49.8	6.1575300931653
149	507673	49.9	8.8259003106485
149	510443	50	7.6179319114361
149	513417	50.1	6.8281712285743
149	514873	50.2	7.23554921491
149	517694	50.3	9.9560454034563
149	520721	50.4	6.45406561929
149	522220	50.5	8.662617544361
149	525145	50.6	11.388715405525
149	528308	50.7	9.0728184788889
149	529755	50.8	11.71759264899
150	513417	50.1	20.05
150	514873	50.2	20.05
150	517694	50.3	20.05
150	520721	50.4	20.05
150	522220	50.5	20.05
150	525145	50.6	20.05
150	528308	50.7	20.05
150	529755	50.8	20.05
151	513417	50.1	39.95
151	514873	50.2	39.95
151	517694	50.3	39.997932424936
151	520721	50.4	40.095119873752
151	522220	50.5	40.235859193796
151	525145	50.6	40.418032136357
151	528308	50.7	40.644176225132
151	529755	50.8	40.907615014305
152	514873	50.2	0.47932424935861
152	517694	50.3	0.97187448816261
152	520721	50.4	1.4073932004375
152	522220	50.5	1.821729425611
152	525145	50.6	2.2614408877547
152	528308	50.7	2.6343878917291
152	529755	50.8	3.1056092534604
153	517694	50.3	4.9255023880399
153	520721	50.4	4.3551871227491
153	522220	50.5	4.1433622517347
153	525145	50.6	4.3971146214367
153	528308	50.7	3.7294700397447
153	529755	50.8	4.7122136173128
154	517694	50.3	2.3106278238203
154	520721	50.4	2.6553502118858
154	522220	50.5	3.0175271982745
154	525145	50.6	3.6166196601052
154	528308	50.7	3.6065656450833
154	529755	50.8	4.7894465213028

