version 2
run Default-0-20200719-00:48:15-31600
attr configname Default
attr datetime 20200719-00:48:15
attr experiment Default
attr inifile omnetppTestPmipv6.ini
attr iterationvars ""
attr iterationvarsf ""
attr measurement ""
attr network TestPmipv6
attr processid 31600
attr repetition 0
attr replication #0
attr resultdir results
attr runnumber 0
attr seedset 0
param *.n 3
param **.debug false
param **.coreDebug false
param *.playgroundSizeX 1400m
param *.playgroundSizeY 700m
param *.playgroundSizeZ 50m
param *.annotations.draw true
param *.obstacles.debug false
param *.obstacles.obstacles "xmldoc(\"config.xml\", \"//AnalogueModel[@type='SimpleObstacleShadowing']/obstacles\")"
param *.manager.updateInterval 0.5s
param *.manager.host "\"localhost\""
param *.manager.port 9999
param *.manager.autoShutdown true
param *.manager.launchConfig "xmldoc(\"test2.launchd.xml\")"
param **.rsu[*].numApps 1
param *.rsu[0].mobility.x 200
param *.rsu[0].mobility.y 130
param *.rsu[0].mobility.z 1.895
param *.rsu[1].mobility.x 650
param *.rsu[1].mobility.y 130
param *.rsu[1].mobility.z 1.895
param *.rsu[2].mobility.x 1100
param *.rsu[2].mobility.y 130
param *.rsu[2].mobility.z 1.895
param *.rsu[*].applType "\"TraCIDemoRSU11p\""
param **.rsu[*].app[*].typename "\"UdpSink\""
param **.rsu[*].app[0].destPort 1000
param **.rsu[*].app[0].messageLength 1000B
param **.rsu[*].app[0].sendInterval "uniform(5s, 10s)"
param **.rsu[*].app[0].sendInterval 100ms
param **.rsu[*].app[0].destAddresses "\"node[3]\""
param **.rsu[*].app[0].localAddress "\"\""
param **.rsu[*].app[0].localPort 1000
param **.rsu[*].app[0].replyDelay 0s
param **.app[*].dataTransferMode "\"object\""
param **.eth[*].queue.typename "\"EtherQosQueue\""
param **.eth[*].queue.dataQueue.typename "\"DropTailQueue\""
param **.eth[*].queue.dataQueue.frameCapacity 10
param **.eth[*].mac.duplexMode true
param *.rsu[*].app[0].headerLength "80 bit"
param *.rsu[*].app[0].sendBeacons false
param *.rsu[*].app[0].dataOnSch false
param *.rsu[*].app[0].beaconInterval 1s
param *.rsu[*].app[0].beaconUserPriority 7
param *.rsu[*].app[0].dataUserPriority 5
param *.connectionManager.sendDirect true
param *.connectionManager.maxInterfDist 700m
param *.connectionManager.drawMaxIntfDist true
param *.**.nic.mac1609_4.useServiceChannel false
param *.node[*].nic.mac1609_4.txPower 8mW
param *.rsu[*].nic.mac1609_4.txPower 8mW
param *.**.nic.mac1609_4.bitrate 6Mbps
param *.**.nic.phy80211p.sensitivity -89dBm
param *.**.nic.phy80211p.useThermalNoise false
param *.**.nic.phy80211p.thermalNoise -110dBm
param *.**.nic.phy80211p.decider "xmldoc(\"config.xml\")"
param *.**.nic.phy80211p.analogueModels "xmldoc(\"config.xml\")"
param *.**.nic.phy80211p.usePropagationDelay true
param *.**.nic.phy80211p.antenna "xmldoc(\"antenna.xml\", \"/root/Antenna[@id='monopole']\")"
param *.node[*].applType "\"TraCIDemo11p\""
param *.node[*].appl.headerLength "80 bit"
param *.node[*].appl.sendBeacons false
param *.node[*].appl.dataOnSch false
param *.node[*].appl.beaconInterval 1s
param *.node[*].numApps 1
param **.node[*].app[*].typename "\"UdpBasicApp\""
param **.node[*].app[0].destPort 1000
param **.node[*].app[0].messageLength 1000B
param **.node[*].app[0].sendInterval 100ms
param **.node[*].app[0].destAddresses "\"rsu[0]\""
param **.node[*].app[0].connectPort 1000
param **.node[0].app[0].startTime uniform(1700s,1700.5s)
param **.node[1].app[0].startTime uniform(1700.5s,1800s)
param **.node[2].app[0].startTime uniform(1800s,1800.5s)
param **.node[3].app[0].startTime uniform(1800.5s,1900s)
param **.node[*].app[0].sendInterval 200ms
param **.node[*].app[0].numCommands int(exponential(10))
param **.node[*].app[0].commandLength intWithUnit(exponential(10B))
param **.node[*].app[0].keyPressDelay exponential(0.1s)
param **.node[*].app[0].commandOutputLength intWithUnit(exponential(40B))
param **.node[*].app[0].thinkTime truncnormal(2s,3s)
param **.node[*].app[0].idleInterval truncnormal(3600s,1200s)
param **.node[*].app[0].reconnectInterval 30s
param *.node[*].veinsmobilityType.debug true
param *.node[*].veinsmobility.x 0
param *.node[*].veinsmobility.y 0
param *.node[*].veinsmobility.z 1.895
param *.node[*0].veinsmobility.accidentCount 1
param *.node[*0].veinsmobility.accidentStart 75s
param *.node[*0].veinsmobility.accidentDuration 50s
param **.CN*.numApps 1
param **.CN*.app[*].typename "\"PingApp\""
param **.CN[0].app[0].destAddr "\"node[0]\""
param **.CN[1].app[0].destAddr "\"\""
param **.CN*.app[0].srcAddr "\"\""
param **.CN*.app[0].packetSize 56B
param **.CN*.app[0].sendInterval 5s
param **.CN*.app[0].hopLimit 32
param **.CN[0].app[0].count -1
param **.CN[1].app[0].count 0
param **.CN*.app[0].startTime 5s
param **.CN*.app[0].stopTime 2000s
param **.CN*.app[0].printPing true

vector 0 TestPmipv6.rsu[0].eth[0].queue.pauseQueue queueLength:vector ETV
attr interpolationmode sample-hold
attr title "queue length, vector"
vector 1 TestPmipv6.rsu[0].eth[0].queue.dataQueue queueLength:vector ETV
attr interpolationmode sample-hold
attr title "queue length, vector"
vector 2 TestPmipv6.rsu[0].eth[1].queue.pauseQueue queueLength:vector ETV
attr interpolationmode sample-hold
attr title "queue length, vector"
vector 3 TestPmipv6.rsu[0].eth[1].queue.dataQueue queueLength:vector ETV
attr interpolationmode sample-hold
attr title "queue length, vector"
vector 4 TestPmipv6.rsu[1].eth[0].queue.pauseQueue queueLength:vector ETV
attr interpolationmode sample-hold
attr title "queue length, vector"
vector 5 TestPmipv6.rsu[1].eth[0].queue.dataQueue queueLength:vector ETV
attr interpolationmode sample-hold
attr title "queue length, vector"
vector 6 TestPmipv6.rsu[1].eth[1].queue.pauseQueue queueLength:vector ETV
attr interpolationmode sample-hold
attr title "queue length, vector"
vector 7 TestPmipv6.rsu[1].eth[1].queue.dataQueue queueLength:vector ETV
attr interpolationmode sample-hold
attr title "queue length, vector"
vector 8 TestPmipv6.rsu[1].eth[2].queue.pauseQueue queueLength:vector ETV
attr interpolationmode sample-hold
attr title "queue length, vector"
vector 9 TestPmipv6.rsu[1].eth[2].queue.dataQueue queueLength:vector ETV
attr interpolationmode sample-hold
attr title "queue length, vector"
vector 10 TestPmipv6.rsu[2].eth[0].queue.pauseQueue queueLength:vector ETV
attr interpolationmode sample-hold
attr title "queue length, vector"
vector 11 TestPmipv6.rsu[2].eth[0].queue.dataQueue queueLength:vector ETV
attr interpolationmode sample-hold
attr title "queue length, vector"
vector 12 TestPmipv6.rsu[2].eth[1].queue.pauseQueue queueLength:vector ETV
attr interpolationmode sample-hold
attr title "queue length, vector"
vector 13 TestPmipv6.rsu[2].eth[1].queue.dataQueue queueLength:vector ETV
attr interpolationmode sample-hold
attr title "queue length, vector"
vector 14 TestPmipv6.MA[0].eth[0].queue.pauseQueue queueLength:vector ETV
attr interpolationmode sample-hold
attr title "queue length, vector"
vector 15 TestPmipv6.MA[0].eth[0].queue.dataQueue queueLength:vector ETV
attr interpolationmode sample-hold
attr title "queue length, vector"
vector 16 TestPmipv6.MA[0].eth[1].queue.pauseQueue queueLength:vector ETV
attr interpolationmode sample-hold
attr title "queue length, vector"
vector 17 TestPmipv6.MA[0].eth[1].queue.dataQueue queueLength:vector ETV
attr interpolationmode sample-hold
attr title "queue length, vector"
vector 18 TestPmipv6.MA[0].eth[2].queue.pauseQueue queueLength:vector ETV
attr interpolationmode sample-hold
attr title "queue length, vector"
vector 19 TestPmipv6.MA[0].eth[2].queue.dataQueue queueLength:vector ETV
attr interpolationmode sample-hold
attr title "queue length, vector"
vector 20 TestPmipv6.MA[0].eth[3].queue.pauseQueue queueLength:vector ETV
attr interpolationmode sample-hold
attr title "queue length, vector"
vector 21 TestPmipv6.MA[0].eth[3].queue.dataQueue queueLength:vector ETV
attr interpolationmode sample-hold
attr title "queue length, vector"
vector 22 TestPmipv6.CN[0].eth[0].queue.pauseQueue queueLength:vector ETV
attr interpolationmode sample-hold
attr title "queue length, vector"
vector 23 TestPmipv6.CN[0].eth[0].queue.dataQueue queueLength:vector ETV
attr interpolationmode sample-hold
attr title "queue length, vector"
vector 24 TestPmipv6.node[0].veinsmobility posx ETV
vector 25 TestPmipv6.node[0].veinsmobility posy ETV
vector 26 TestPmipv6.node[1].veinsmobility posx ETV
vector 27 TestPmipv6.node[1].veinsmobility posy ETV
vector 28 TestPmipv6.node[0].veinsmobility speed ETV
vector 29 TestPmipv6.node[0].veinsmobility acceleration ETV
vector 30 TestPmipv6.node[0].veinsmobility co2emission ETV
vector 31 TestPmipv6.node[1].veinsmobility speed ETV
vector 32 TestPmipv6.CN[0].eth[0].encap encapPk:vector(packetBytes) ETV
attr interpolationmode none
attr source encapPk
attr title "packets encapsulated, vector(packetBytes)"
vector 33 TestPmipv6.CN[0].eth[0].queue.dataQueue packetReceived:vector(packetBytes) ETV
attr interpolationmode none
attr title "received packets, vector(packetBytes)"
vector 34 TestPmipv6.CN[0].eth[0].queue.dataQueue queueingTime:vector ETV
attr interpolationmode none
attr title "queueing time, vector"
vector 35 TestPmipv6.CN[0].eth[0].mac packetReceivedFromUpper:vector(packetBytes) ETV
attr interpolationmode none
attr source packetReceivedFromUpper
attr title "packet bytes from higher layer, vector(packetBytes)"
vector 36 TestPmipv6.CN[0].eth[0].mac txPk:vector(packetBytes) ETV
attr interpolationmode none
attr source packetSentToLower
attr title "packets transmitted, vector(packetBytes)"
vector 37 TestPmipv6.MA[0].eth[3].mac rxPkOk:vector(packetBytes) ETV
attr interpolationmode none
attr source rxPkOk
attr title "packets received OK, vector(packetBytes)"
vector 38 TestPmipv6.MA[0].eth[3].mac passedUpPk:vector(packetBytes) ETV
attr interpolationmode none
attr source packetSentToUpper
attr title "packets passed to higher layer, vector(packetBytes)"
vector 39 TestPmipv6.MA[0].eth[3].encap decapPk:vector(packetBytes) ETV
attr interpolationmode none
attr source decapPk
attr title "packets decapsulated, vector(packetBytes)"
vector 40 TestPmipv6.MA[0].eth[3].encap encapPk:vector(packetBytes) ETV
attr interpolationmode none
attr source encapPk
attr title "packets encapsulated, vector(packetBytes)"
vector 41 TestPmipv6.MA[0].eth[3].queue.dataQueue packetReceived:vector(packetBytes) ETV
attr interpolationmode none
attr title "received packets, vector(packetBytes)"
vector 42 TestPmipv6.MA[0].eth[3].queue.dataQueue queueingTime:vector ETV
attr interpolationmode none
attr title "queueing time, vector"
vector 43 TestPmipv6.MA[0].eth[3].mac packetReceivedFromUpper:vector(packetBytes) ETV
attr interpolationmode none
attr source packetReceivedFromUpper
attr title "packet bytes from higher layer, vector(packetBytes)"
vector 44 TestPmipv6.MA[0].eth[3].mac txPk:vector(packetBytes) ETV
attr interpolationmode none
attr source packetSentToLower
attr title "packets transmitted, vector(packetBytes)"
vector 45 TestPmipv6.CN[0].eth[0].mac rxPkOk:vector(packetBytes) ETV
attr interpolationmode none
attr source rxPkOk
attr title "packets received OK, vector(packetBytes)"
vector 46 TestPmipv6.CN[0].eth[0].mac passedUpPk:vector(packetBytes) ETV
attr interpolationmode none
attr source packetSentToUpper
attr title "packets passed to higher layer, vector(packetBytes)"
vector 47 TestPmipv6.CN[0].eth[0].encap decapPk:vector(packetBytes) ETV
attr interpolationmode none
attr source decapPk
attr title "packets decapsulated, vector(packetBytes)"
vector 48 TestPmipv6.rsu[0].eth[0].encap encapPk:vector(packetBytes) ETV
attr interpolationmode none
attr source encapPk
attr title "packets encapsulated, vector(packetBytes)"
vector 49 TestPmipv6.rsu[0].eth[0].queue.dataQueue packetReceived:vector(packetBytes) ETV
attr interpolationmode none
attr title "received packets, vector(packetBytes)"
vector 50 TestPmipv6.rsu[0].eth[0].queue.dataQueue queueingTime:vector ETV
attr interpolationmode none
attr title "queueing time, vector"
vector 51 TestPmipv6.rsu[0].eth[0].mac packetReceivedFromUpper:vector(packetBytes) ETV
attr interpolationmode none
attr source packetReceivedFromUpper
attr title "packet bytes from higher layer, vector(packetBytes)"
vector 52 TestPmipv6.rsu[0].eth[0].mac txPk:vector(packetBytes) ETV
attr interpolationmode none
attr source packetSentToLower
attr title "packets transmitted, vector(packetBytes)"
vector 53 TestPmipv6.MA[0].eth[0].mac rxPkOk:vector(packetBytes) ETV
attr interpolationmode none
attr source rxPkOk
attr title "packets received OK, vector(packetBytes)"
vector 54 TestPmipv6.MA[0].eth[0].mac passedUpPk:vector(packetBytes) ETV
attr interpolationmode none
attr source packetSentToUpper
attr title "packets passed to higher layer, vector(packetBytes)"
vector 55 TestPmipv6.MA[0].eth[0].encap decapPk:vector(packetBytes) ETV
attr interpolationmode none
attr source decapPk
attr title "packets decapsulated, vector(packetBytes)"
vector 56 TestPmipv6.node[2].veinsmobility posx ETV
vector 57 TestPmipv6.node[2].veinsmobility posy ETV
vector 58 TestPmipv6.node[1].veinsmobility acceleration ETV
vector 59 TestPmipv6.node[1].veinsmobility co2emission ETV
vector 60 TestPmipv6.node[3].veinsmobility posx ETV
vector 61 TestPmipv6.node[3].veinsmobility posy ETV
vector 62 TestPmipv6.node[2].veinsmobility speed ETV
vector 63 TestPmipv6.node[2].veinsmobility acceleration ETV
vector 64 TestPmipv6.node[2].veinsmobility co2emission ETV
vector 65 TestPmipv6.node[3].veinsmobility speed ETV
vector 66 TestPmipv6.node[3].veinsmobility acceleration ETV
vector 67 TestPmipv6.node[3].veinsmobility co2emission ETV
vector 68 TestPmipv6.node[4].veinsmobility posx ETV
vector 69 TestPmipv6.node[4].veinsmobility posy ETV
vector 70 TestPmipv6.node[4].app[0] packetSent:vector(packetBytes) ETV
attr interpolationmode none
attr source packetSent
attr title "packets sent, vector(packetBytes)"
vector 71 TestPmipv6.node[4].udp packetSent:vector(packetBytes) ETV
attr interpolationmode none
attr source packetSent
attr title "packets sent, vector(packetBytes)"
vector 72 TestPmipv6.node[5].veinsmobility posx ETV
vector 73 TestPmipv6.node[5].veinsmobility posy ETV
vector 74 TestPmipv6.node[4].veinsmobility speed ETV
vector 75 TestPmipv6.node[5].app[0] packetSent:vector(packetBytes) ETV
attr interpolationmode none
attr source packetSent
attr title "packets sent, vector(packetBytes)"
vector 76 TestPmipv6.node[5].udp packetSent:vector(packetBytes) ETV
attr interpolationmode none
attr source packetSent
attr title "packets sent, vector(packetBytes)"
vector 77 TestPmipv6.CN[0].app[0] pingTxSeq:vector ETV
attr interpolationmode none
attr title "ping tx seq, vector"
vector 78 TestPmipv6.node[4].veinsmobility acceleration ETV
vector 79 TestPmipv6.node[4].veinsmobility co2emission ETV
vector 80 TestPmipv6.node[5].veinsmobility speed ETV
vector 81 TestPmipv6.MA[0].eth[2].encap encapPk:vector(packetBytes) ETV
attr interpolationmode none
attr source encapPk
attr title "packets encapsulated, vector(packetBytes)"
vector 82 TestPmipv6.MA[0].eth[2].queue.dataQueue packetReceived:vector(packetBytes) ETV
attr interpolationmode none
attr title "received packets, vector(packetBytes)"
vector 83 TestPmipv6.MA[0].eth[2].queue.dataQueue queueingTime:vector ETV
attr interpolationmode none
attr title "queueing time, vector"
vector 84 TestPmipv6.MA[0].eth[2].mac packetReceivedFromUpper:vector(packetBytes) ETV
attr interpolationmode none
attr source packetReceivedFromUpper
attr title "packet bytes from higher layer, vector(packetBytes)"
vector 85 TestPmipv6.MA[0].eth[2].mac txPk:vector(packetBytes) ETV
attr interpolationmode none
attr source packetSentToLower
attr title "packets transmitted, vector(packetBytes)"
vector 86 TestPmipv6.rsu[2].eth[0].mac rxPkOk:vector(packetBytes) ETV
attr interpolationmode none
attr source rxPkOk
attr title "packets received OK, vector(packetBytes)"
vector 87 TestPmipv6.rsu[2].eth[0].mac passedUpPk:vector(packetBytes) ETV
attr interpolationmode none
attr source packetSentToUpper
attr title "packets passed to higher layer, vector(packetBytes)"
vector 88 TestPmipv6.rsu[2].eth[0].encap decapPk:vector(packetBytes) ETV
attr interpolationmode none
attr source decapPk
attr title "packets decapsulated, vector(packetBytes)"
vector 89 TestPmipv6.node[6].veinsmobility posx ETV
vector 90 TestPmipv6.node[6].veinsmobility posy ETV
vector 91 TestPmipv6.node[5].veinsmobility acceleration ETV
vector 92 TestPmipv6.node[5].veinsmobility co2emission ETV
vector 93 TestPmipv6.node[6].app[0] packetSent:vector(packetBytes) ETV
attr interpolationmode none
attr source packetSent
attr title "packets sent, vector(packetBytes)"
vector 94 TestPmipv6.node[6].udp packetSent:vector(packetBytes) ETV
attr interpolationmode none
attr source packetSent
attr title "packets sent, vector(packetBytes)"
vector 95 TestPmipv6.node[6].veinsmobility speed ETV
vector 96 TestPmipv6.node[7].veinsmobility posx ETV
vector 97 TestPmipv6.node[7].veinsmobility posy ETV
vector 98 TestPmipv6.node[6].veinsmobility acceleration ETV
vector 99 TestPmipv6.node[6].veinsmobility co2emission ETV
vector 100 TestPmipv6.node[7].app[0] packetSent:vector(packetBytes) ETV
attr interpolationmode none
attr source packetSent
attr title "packets sent, vector(packetBytes)"
vector 101 TestPmipv6.node[7].udp packetSent:vector(packetBytes) ETV
attr interpolationmode none
attr source packetSent
attr title "packets sent, vector(packetBytes)"
vector 102 TestPmipv6.node[7].veinsmobility speed ETV
vector 103 TestPmipv6.node[8].veinsmobility posx ETV
vector 104 TestPmipv6.node[8].veinsmobility posy ETV
vector 105 TestPmipv6.node[7].veinsmobility acceleration ETV
vector 106 TestPmipv6.node[7].veinsmobility co2emission ETV
vector 107 TestPmipv6.node[8].app[0] packetSent:vector(packetBytes) ETV
attr interpolationmode none
attr source packetSent
attr title "packets sent, vector(packetBytes)"
vector 108 TestPmipv6.node[8].udp packetSent:vector(packetBytes) ETV
attr interpolationmode none
attr source packetSent
attr title "packets sent, vector(packetBytes)"
vector 109 TestPmipv6.node[8].veinsmobility speed ETV
vector 110 TestPmipv6.node[9].veinsmobility posx ETV
vector 111 TestPmipv6.node[9].veinsmobility posy ETV
vector 112 TestPmipv6.node[8].veinsmobility acceleration ETV
vector 113 TestPmipv6.node[8].veinsmobility co2emission ETV
vector 114 TestPmipv6.node[9].app[0] packetSent:vector(packetBytes) ETV
attr interpolationmode none
attr source packetSent
attr title "packets sent, vector(packetBytes)"
vector 115 TestPmipv6.node[9].udp packetSent:vector(packetBytes) ETV
attr interpolationmode none
attr source packetSent
attr title "packets sent, vector(packetBytes)"
vector 116 TestPmipv6.node[10].veinsmobility posx ETV
vector 117 TestPmipv6.node[10].veinsmobility posy ETV
vector 118 TestPmipv6.node[9].veinsmobility speed ETV
vector 119 TestPmipv6.node[10].app[0] packetSent:vector(packetBytes) ETV
attr interpolationmode none
attr source packetSent
attr title "packets sent, vector(packetBytes)"
vector 120 TestPmipv6.node[10].udp packetSent:vector(packetBytes) ETV
attr interpolationmode none
attr source packetSent
attr title "packets sent, vector(packetBytes)"
vector 121 TestPmipv6.node[9].veinsmobility acceleration ETV
vector 122 TestPmipv6.node[9].veinsmobility co2emission ETV
vector 123 TestPmipv6.node[10].veinsmobility speed ETV
vector 124 TestPmipv6.node[10].veinsmobility acceleration ETV
vector 125 TestPmipv6.node[10].veinsmobility co2emission ETV
vector 126 TestPmipv6.node[11].veinsmobility posx ETV
vector 127 TestPmipv6.node[11].veinsmobility posy ETV
vector 128 TestPmipv6.node[11].app[0] packetSent:vector(packetBytes) ETV
attr interpolationmode none
attr source packetSent
attr title "packets sent, vector(packetBytes)"
vector 129 TestPmipv6.node[11].udp packetSent:vector(packetBytes) ETV
attr interpolationmode none
attr source packetSent
attr title "packets sent, vector(packetBytes)"
vector 130 TestPmipv6.node[12].veinsmobility posx ETV
vector 131 TestPmipv6.node[12].veinsmobility posy ETV
vector 132 TestPmipv6.node[11].veinsmobility speed ETV
vector 133 TestPmipv6.node[12].app[0] packetSent:vector(packetBytes) ETV
attr interpolationmode none
attr source packetSent
attr title "packets sent, vector(packetBytes)"
vector 134 TestPmipv6.node[12].udp packetSent:vector(packetBytes) ETV
attr interpolationmode none
attr source packetSent
attr title "packets sent, vector(packetBytes)"
vector 135 TestPmipv6.node[11].veinsmobility acceleration ETV
vector 136 TestPmipv6.node[11].veinsmobility co2emission ETV
vector 137 TestPmipv6.node[12].veinsmobility speed ETV
vector 138 TestPmipv6.node[12].veinsmobility acceleration ETV
vector 139 TestPmipv6.node[12].veinsmobility co2emission ETV
vector 140 TestPmipv6.node[13].veinsmobility posx ETV
vector 141 TestPmipv6.node[13].veinsmobility posy ETV
vector 142 TestPmipv6.node[13].app[0] packetSent:vector(packetBytes) ETV
attr interpolationmode none
attr source packetSent
attr title "packets sent, vector(packetBytes)"
vector 143 TestPmipv6.node[13].udp packetSent:vector(packetBytes) ETV
attr interpolationmode none
attr source packetSent
attr title "packets sent, vector(packetBytes)"
vector 144 TestPmipv6.node[13].veinsmobility speed ETV
vector 145 TestPmipv6.node[14].veinsmobility posx ETV
vector 146 TestPmipv6.node[14].veinsmobility posy ETV
vector 147 TestPmipv6.node[13].veinsmobility acceleration ETV
vector 148 TestPmipv6.node[13].veinsmobility co2emission ETV
vector 149 TestPmipv6.node[14].app[0] packetSent:vector(packetBytes) ETV
attr interpolationmode none
attr source packetSent
attr title "packets sent, vector(packetBytes)"
vector 150 TestPmipv6.node[14].udp packetSent:vector(packetBytes) ETV
attr interpolationmode none
attr source packetSent
attr title "packets sent, vector(packetBytes)"
vector 151 TestPmipv6.node[14].veinsmobility speed ETV
vector 152 TestPmipv6.node[15].veinsmobility posx ETV
vector 153 TestPmipv6.node[15].veinsmobility posy ETV
vector 154 TestPmipv6.node[14].veinsmobility acceleration ETV
vector 155 TestPmipv6.node[14].veinsmobility co2emission ETV
vector 156 TestPmipv6.node[15].app[0] packetSent:vector(packetBytes) ETV
attr interpolationmode none
attr source packetSent
attr title "packets sent, vector(packetBytes)"
vector 157 TestPmipv6.node[15].udp packetSent:vector(packetBytes) ETV
attr interpolationmode none
attr source packetSent
attr title "packets sent, vector(packetBytes)"
vector 158 TestPmipv6.node[15].veinsmobility speed ETV
vector 159 TestPmipv6.node[16].veinsmobility posx ETV
vector 160 TestPmipv6.node[16].veinsmobility posy ETV
vector 161 TestPmipv6.node[15].veinsmobility acceleration ETV
vector 162 TestPmipv6.node[15].veinsmobility co2emission ETV
vector 163 TestPmipv6.node[16].app[0] packetSent:vector(packetBytes) ETV
attr interpolationmode none
attr source packetSent
attr title "packets sent, vector(packetBytes)"
vector 164 TestPmipv6.node[16].udp packetSent:vector(packetBytes) ETV
attr interpolationmode none
attr source packetSent
attr title "packets sent, vector(packetBytes)"
vector 165 TestPmipv6.node[16].veinsmobility speed ETV
vector 166 TestPmipv6.node[16].veinsmobility acceleration ETV
vector 167 TestPmipv6.node[16].veinsmobility co2emission ETV
vector 168 TestPmipv6.node[17].veinsmobility posx ETV
vector 169 TestPmipv6.node[17].veinsmobility posy ETV
vector 170 TestPmipv6.node[17].app[0] packetSent:vector(packetBytes) ETV
attr interpolationmode none
attr source packetSent
attr title "packets sent, vector(packetBytes)"
vector 171 TestPmipv6.node[17].udp packetSent:vector(packetBytes) ETV
attr interpolationmode none
attr source packetSent
attr title "packets sent, vector(packetBytes)"
vector 172 TestPmipv6.node[17].veinsmobility speed ETV
vector 173 TestPmipv6.node[18].veinsmobility posx ETV
vector 174 TestPmipv6.node[18].veinsmobility posy ETV
vector 175 TestPmipv6.node[17].veinsmobility acceleration ETV
vector 176 TestPmipv6.node[17].veinsmobility co2emission ETV
vector 177 TestPmipv6.node[18].app[0] packetSent:vector(packetBytes) ETV
attr interpolationmode none
attr source packetSent
attr title "packets sent, vector(packetBytes)"
vector 178 TestPmipv6.node[18].udp packetSent:vector(packetBytes) ETV
attr interpolationmode none
attr source packetSent
attr title "packets sent, vector(packetBytes)"
vector 179 TestPmipv6.node[18].veinsmobility speed ETV
vector 180 TestPmipv6.node[18].veinsmobility acceleration ETV
vector 181 TestPmipv6.node[18].veinsmobility co2emission ETV
vector 182 TestPmipv6.node[19].veinsmobility posx ETV
vector 183 TestPmipv6.node[19].veinsmobility posy ETV
vector 184 TestPmipv6.node[19].app[0] packetSent:vector(packetBytes) ETV
attr interpolationmode none
attr source packetSent
attr title "packets sent, vector(packetBytes)"
vector 185 TestPmipv6.node[19].udp packetSent:vector(packetBytes) ETV
attr interpolationmode none
attr source packetSent
attr title "packets sent, vector(packetBytes)"
vector 186 TestPmipv6.node[19].veinsmobility speed ETV
vector 187 TestPmipv6.node[20].veinsmobility posx ETV
vector 188 TestPmipv6.node[20].veinsmobility posy ETV
vector 189 TestPmipv6.node[19].veinsmobility acceleration ETV
vector 190 TestPmipv6.node[19].veinsmobility co2emission ETV
vector 191 TestPmipv6.node[20].app[0] packetSent:vector(packetBytes) ETV
attr interpolationmode none
attr source packetSent
attr title "packets sent, vector(packetBytes)"
vector 192 TestPmipv6.node[20].udp packetSent:vector(packetBytes) ETV
attr interpolationmode none
attr source packetSent
attr title "packets sent, vector(packetBytes)"
vector 193 TestPmipv6.node[20].veinsmobility speed ETV
vector 194 TestPmipv6.node[20].veinsmobility acceleration ETV
vector 195 TestPmipv6.node[20].veinsmobility co2emission ETV
vector 196 TestPmipv6.node[21].veinsmobility posx ETV
vector 197 TestPmipv6.node[21].veinsmobility posy ETV
vector 198 TestPmipv6.node[21].app[0] packetSent:vector(packetBytes) ETV
attr interpolationmode none
attr source packetSent
attr title "packets sent, vector(packetBytes)"
vector 199 TestPmipv6.node[21].udp packetSent:vector(packetBytes) ETV
attr interpolationmode none
attr source packetSent
attr title "packets sent, vector(packetBytes)"
vector 200 TestPmipv6.node[21].veinsmobility speed ETV
vector 201 TestPmipv6.node[22].veinsmobility posx ETV
vector 202 TestPmipv6.node[22].veinsmobility posy ETV
vector 203 TestPmipv6.node[21].veinsmobility acceleration ETV
vector 204 TestPmipv6.node[21].veinsmobility co2emission ETV
vector 205 TestPmipv6.node[22].app[0] packetSent:vector(packetBytes) ETV
attr interpolationmode none
attr source packetSent
attr title "packets sent, vector(packetBytes)"
vector 206 TestPmipv6.node[22].udp packetSent:vector(packetBytes) ETV
attr interpolationmode none
attr source packetSent
attr title "packets sent, vector(packetBytes)"
vector 207 TestPmipv6.node[22].veinsmobility speed ETV
vector 208 TestPmipv6.node[22].veinsmobility acceleration ETV
vector 209 TestPmipv6.node[22].veinsmobility co2emission ETV
vector 210 TestPmipv6.node[23].veinsmobility posx ETV
vector 211 TestPmipv6.node[23].veinsmobility posy ETV
vector 212 TestPmipv6.node[23].app[0] packetSent:vector(packetBytes) ETV
attr interpolationmode none
attr source packetSent
attr title "packets sent, vector(packetBytes)"
vector 213 TestPmipv6.node[23].udp packetSent:vector(packetBytes) ETV
attr interpolationmode none
attr source packetSent
attr title "packets sent, vector(packetBytes)"
vector 214 TestPmipv6.node[23].veinsmobility speed ETV
vector 215 TestPmipv6.node[24].veinsmobility posx ETV
vector 216 TestPmipv6.node[24].veinsmobility posy ETV
vector 217 TestPmipv6.node[23].veinsmobility acceleration ETV
vector 218 TestPmipv6.node[23].veinsmobility co2emission ETV
vector 219 TestPmipv6.node[24].app[0] packetSent:vector(packetBytes) ETV
attr interpolationmode none
attr source packetSent
attr title "packets sent, vector(packetBytes)"
vector 220 TestPmipv6.node[24].udp packetSent:vector(packetBytes) ETV
attr interpolationmode none
attr source packetSent
attr title "packets sent, vector(packetBytes)"
vector 221 TestPmipv6.node[24].veinsmobility speed ETV
vector 222 TestPmipv6.node[24].veinsmobility acceleration ETV
vector 223 TestPmipv6.node[24].veinsmobility co2emission ETV
vector 224 TestPmipv6.node[25].veinsmobility posx ETV
vector 225 TestPmipv6.node[25].veinsmobility posy ETV
vector 226 TestPmipv6.node[25].app[0] packetSent:vector(packetBytes) ETV
attr interpolationmode none
attr source packetSent
attr title "packets sent, vector(packetBytes)"
vector 227 TestPmipv6.node[25].udp packetSent:vector(packetBytes) ETV
attr interpolationmode none
attr source packetSent
attr title "packets sent, vector(packetBytes)"
vector 228 TestPmipv6.node[25].veinsmobility speed ETV
vector 229 TestPmipv6.node[26].veinsmobility posx ETV
vector 230 TestPmipv6.node[26].veinsmobility posy ETV
vector 231 TestPmipv6.node[25].veinsmobility acceleration ETV
vector 232 TestPmipv6.node[25].veinsmobility co2emission ETV
vector 233 TestPmipv6.node[26].app[0] packetSent:vector(packetBytes) ETV
attr interpolationmode none
attr source packetSent
attr title "packets sent, vector(packetBytes)"
vector 234 TestPmipv6.node[26].udp packetSent:vector(packetBytes) ETV
attr interpolationmode none
attr source packetSent
attr title "packets sent, vector(packetBytes)"
vector 235 TestPmipv6.node[26].veinsmobility speed ETV
vector 236 TestPmipv6.node[27].veinsmobility posx ETV
vector 237 TestPmipv6.node[27].veinsmobility posy ETV
vector 238 TestPmipv6.node[26].veinsmobility acceleration ETV
vector 239 TestPmipv6.node[26].veinsmobility co2emission ETV
vector 240 TestPmipv6.node[27].app[0] packetSent:vector(packetBytes) ETV
attr interpolationmode none
attr source packetSent
attr title "packets sent, vector(packetBytes)"
vector 241 TestPmipv6.node[27].udp packetSent:vector(packetBytes) ETV
attr interpolationmode none
attr source packetSent
attr title "packets sent, vector(packetBytes)"
vector 242 TestPmipv6.node[27].veinsmobility speed ETV
vector 243 TestPmipv6.node[28].veinsmobility posx ETV
vector 244 TestPmipv6.node[28].veinsmobility posy ETV
vector 245 TestPmipv6.node[27].veinsmobility acceleration ETV
vector 246 TestPmipv6.node[27].veinsmobility co2emission ETV
vector 247 TestPmipv6.node[28].app[0] packetSent:vector(packetBytes) ETV
attr interpolationmode none
attr source packetSent
attr title "packets sent, vector(packetBytes)"
vector 248 TestPmipv6.node[28].udp packetSent:vector(packetBytes) ETV
attr interpolationmode none
attr source packetSent
attr title "packets sent, vector(packetBytes)"
vector 249 TestPmipv6.node[28].veinsmobility speed ETV
vector 250 TestPmipv6.node[28].veinsmobility acceleration ETV
vector 251 TestPmipv6.node[28].veinsmobility co2emission ETV
vector 252 TestPmipv6.node[29].veinsmobility posx ETV
vector 253 TestPmipv6.node[29].veinsmobility posy ETV
vector 254 TestPmipv6.node[29].app[0] packetSent:vector(packetBytes) ETV
attr interpolationmode none
attr source packetSent
attr title "packets sent, vector(packetBytes)"
vector 255 TestPmipv6.node[29].udp packetSent:vector(packetBytes) ETV
attr interpolationmode none
attr source packetSent
attr title "packets sent, vector(packetBytes)"
vector 256 TestPmipv6.node[29].veinsmobility speed ETV
vector 257 TestPmipv6.node[30].veinsmobility posx ETV
vector 258 TestPmipv6.node[30].veinsmobility posy ETV
vector 259 TestPmipv6.node[29].veinsmobility acceleration ETV
vector 260 TestPmipv6.node[29].veinsmobility co2emission ETV
vector 261 TestPmipv6.node[30].app[0] packetSent:vector(packetBytes) ETV
attr interpolationmode none
attr source packetSent
attr title "packets sent, vector(packetBytes)"
vector 262 TestPmipv6.node[30].udp packetSent:vector(packetBytes) ETV
attr interpolationmode none
attr source packetSent
attr title "packets sent, vector(packetBytes)"
vector 263 TestPmipv6.node[30].veinsmobility speed ETV
vector 264 TestPmipv6.node[30].veinsmobility acceleration ETV
vector 265 TestPmipv6.node[30].veinsmobility co2emission ETV
vector 266 TestPmipv6.node[31].veinsmobility posx ETV
vector 267 TestPmipv6.node[31].veinsmobility posy ETV
vector 268 TestPmipv6.node[31].app[0] packetSent:vector(packetBytes) ETV
attr interpolationmode none
attr source packetSent
attr title "packets sent, vector(packetBytes)"
vector 269 TestPmipv6.node[31].udp packetSent:vector(packetBytes) ETV
attr interpolationmode none
attr source packetSent
attr title "packets sent, vector(packetBytes)"
vector 270 TestPmipv6.node[31].veinsmobility speed ETV
vector 271 TestPmipv6.node[32].veinsmobility posx ETV
vector 272 TestPmipv6.node[32].veinsmobility posy ETV
vector 273 TestPmipv6.node[31].veinsmobility acceleration ETV
vector 274 TestPmipv6.node[31].veinsmobility co2emission ETV
vector 275 TestPmipv6.node[32].app[0] packetSent:vector(packetBytes) ETV
attr interpolationmode none
attr source packetSent
attr title "packets sent, vector(packetBytes)"
vector 276 TestPmipv6.node[32].udp packetSent:vector(packetBytes) ETV
attr interpolationmode none
attr source packetSent
attr title "packets sent, vector(packetBytes)"
vector 277 TestPmipv6.node[32].veinsmobility speed ETV
vector 278 TestPmipv6.node[32].veinsmobility acceleration ETV
vector 279 TestPmipv6.node[32].veinsmobility co2emission ETV
vector 280 TestPmipv6.node[33].veinsmobility posx ETV
vector 281 TestPmipv6.node[33].veinsmobility posy ETV
vector 282 TestPmipv6.node[33].app[0] packetSent:vector(packetBytes) ETV
attr interpolationmode none
attr source packetSent
attr title "packets sent, vector(packetBytes)"
vector 283 TestPmipv6.node[33].udp packetSent:vector(packetBytes) ETV
attr interpolationmode none
attr source packetSent
attr title "packets sent, vector(packetBytes)"
vector 284 TestPmipv6.node[33].veinsmobility speed ETV
vector 285 TestPmipv6.node[34].veinsmobility posx ETV
vector 286 TestPmipv6.node[34].veinsmobility posy ETV
vector 287 TestPmipv6.node[33].veinsmobility acceleration ETV
vector 288 TestPmipv6.node[33].veinsmobility co2emission ETV
vector 289 TestPmipv6.node[34].app[0] packetSent:vector(packetBytes) ETV
attr interpolationmode none
attr source packetSent
attr title "packets sent, vector(packetBytes)"
vector 290 TestPmipv6.node[34].udp packetSent:vector(packetBytes) ETV
attr interpolationmode none
attr source packetSent
attr title "packets sent, vector(packetBytes)"
vector 291 TestPmipv6.node[34].veinsmobility speed ETV
vector 292 TestPmipv6.node[34].veinsmobility acceleration ETV
vector 293 TestPmipv6.node[34].veinsmobility co2emission ETV
vector 294 TestPmipv6.node[35].veinsmobility posx ETV
vector 295 TestPmipv6.node[35].veinsmobility posy ETV
vector 296 TestPmipv6.node[35].app[0] packetSent:vector(packetBytes) ETV
attr interpolationmode none
attr source packetSent
attr title "packets sent, vector(packetBytes)"
vector 297 TestPmipv6.node[35].udp packetSent:vector(packetBytes) ETV
attr interpolationmode none
attr source packetSent
attr title "packets sent, vector(packetBytes)"
0	0	0	0
1	0	0	0
1	142	1.923730778595	1
1	142	1.923730778595	0
1	305	2.167039208339	1
1	305	2.167039208339	0
1	483	3.099906623228	1
1	483	3.099906623228	0
1	701	4.210120035149	1
1	701	4.210120035149	0
1	1079	5.510172403943	1
1	1079	5.510172403943	0
1	1378	5.859729825875	1
1	1378	5.859729825875	0
1	1708	6.370370309097	1
1	1708	6.370370309097	0
1	2182	7.502491812447	1
1	2182	7.502491812447	0
1	2836	9.113609839864	1
1	2836	9.113609839864	0
1	3233	9.281882205788	1
1	3233	9.281882205788	0
1	3876	10.364938671853	1
1	3876	10.364938671853	0
1	4651	11.639407823688	1
1	4651	11.639407823688	0
1	5432	12.737414261967	1
1	5432	12.737414261967	0
1	6302	13.979852878462	1
1	6302	13.979852878462	0
1	6819	14.038431303117	1
1	6819	14.038431303117	0
1	7848	15.415235880811	1
1	7848	15.415235880811	0
1	8790	16.415391866093	1
1	8790	16.415391866093	0
1	10240	18.40573884335	1
1	10240	18.40573884335	0
1	10879	18.570514329624	1
1	10879	18.570514329624	0
1	13196	20.641893847187	1
1	13196	20.641893847187	0
1	14612	21.653570947798	1
1	14612	21.653570947798	0
1	17115	23.503742467743	1
1	17115	23.503742467743	0
1	18276	24.321013922966	1
1	18276	24.321013922966	0
1	20232	25.872256041989	1
1	20232	25.872256041989	0
1	22123	26.775633880409	1
1	22123	26.775633880409	0
1	23924	27.889868133399	1
1	23924	27.889868133399	0
1	25785	28.924750256957	1
1	25785	28.924750256957	0
1	27495	29.779764521884	1
1	27495	29.779764521884	0
1	28883	30.437693893363	1
1	28883	30.437693893363	0
1	32872	33.131162476955	1
1	32872	33.131162476955	0
1	34856	34.092100684267	1
1	34856	34.092100684267	0
1	37358	35.490514816035	1
1	37358	35.490514816035	0
1	39639	36.508354019759	1
1	39639	36.508354019759	0
1	42776	37.761098487046	1
1	42776	37.761098487046	0
1	45506	38.825494785311	1
1	45506	38.825494785311	0
2	0	0	0
3	0	0	0
4	0	0	0
5	0	0	0
6	0	0	0
7	0	0	0
8	0	0	0
9	0	0	0
10	0	0	0
11	0	0	0
12	0	0	0
13	0	0	0
14	0	0	0
15	0	0	0
16	0	0	0
17	0	0	0
18	0	0	0
19	0	0	0
19	864	5.0000105	1
19	864	5.0000105	0
19	1510	6.0000105	1
19	1510	6.0000105	0
19	1909	7.0000105	1
19	1909	7.0000105	0
19	3574	10.0000105	1
19	3574	10.0000105	0
19	4207	11.0000105	1
19	4207	11.0000105	0
19	4936	12.0000105	1
19	4936	12.0000105	0
19	7378	15.0000105	1
19	7378	15.0000105	0
19	8292	16.0000105	1
19	8292	16.0000105	0
19	9242	17.0000105	1
19	9242	17.0000105	0
19	12258	20.0000105	1
19	12258	20.0000105	0
19	13656	21.0000105	1
19	13656	21.0000105	0
19	15073	22.0000105	1
19	15073	22.0000105	0
19	19257	25.0000105	1
19	19257	25.0000105	0
19	20658	26.0000105	1
19	20658	26.0000105	0
19	22621	27.0000105	1
19	22621	27.0000105	0
19	28062	30.0000105	1
19	28062	30.0000105	0
19	29999	31.0000105	1
19	29999	31.0000105	0
19	31105	32.0000105	1
19	31105	32.0000105	0
19	36093	35.0000105	1
19	36093	35.0000105	0
19	38625	36.0000105	1
19	38625	36.0000105	0
19	40828	37.0000105	1
19	40828	37.0000105	0
20	0	0	0
21	0	0	0
21	32	1.565950000631	1
21	32	1.565950000631	0
21	56	1.565966520631	1
21	56	1.565966520631	0
22	0	0	0
23	0	0	0
23	21	1.565943340631	1
23	21	1.565943340631	0
23	44	1.565958580631	1
23	44	1.565958580631	0
23	853	5	1
23	853	5	0
23	3563	10	1
23	3563	10	0
23	7367	15	1
23	7367	15	0
23	12247	20	1
23	12247	20	0
23	19246	25	1
23	19246	25	0
23	28050	30	1
23	28050	30	0
23	36081	35	1
23	36081	35	0
24	12	0.5	45.414885528039
24	14	1	45.414885528039
24	16	1.5	50.372291044918
24	213	2	55.329100382959
24	372	2.5	60.297476418075
24	374	3	65.251547042488
24	561	3.5	70.22857869205
24	562	4	75.200480431283
24	796	4.5	80.171644432045
24	840	5	85.149399062911
24	906	5.5	90.12570720682
24	1495	6	95.053220581889
24	1824	6.5	99.36322153397
24	1891	7	102.93572514369
24	1970	7.5	105.8465554187
24	2373	8	108.12443065541
24	2456	8.5	109.97114270652
24	2558	9	112.3302452738
24	3424	9.5	115.3138498761
24	3537	10	118.85872730925
24	4044	10.5	122.81815336352
24	4172	11	127.28702652201
24	4331	11.5	132.21264045696
24	4903	12	137.17693418486
24	5056	12.5	142.14837368599
24	5671	13	147.11232628971
24	5829	13.5	152.08494736581
24	6489	14	157.05500877108
24	7138	14.5	162.03176175072
24	7326	15	167.00814702227
24	8045	15.5	171.95932926466
24	8247	16	176.93374341165
24	8997	16.5	181.89722008393
24	9193	17	186.8558536001
24	9422	17.5	191.81561714378
24	9639	18	196.60208491489
24	10468	18.5	200.66799536607
24	11503	19	204.00894710531
24	11946	19.5	206.67950842878
24	12194	20	208.76327336623
24	12691	20.5	210.60750189723
24	13599	21	213.05829656272
24	14110	21.5	216.05960991092
24	15012	22	219.49293219179
24	15301	22.5	223.45347660679
24	16072	23	227.8300865813
24	16627	23.5	232.67816249724
24	17618	24	237.63412581652
24	18606	24.5	242.58930810661
24	19181	25	247.54575695969
24	19511	25.5	252.51808781961
24	20589	26	257.49451062012
24	21477	26.5	262.46401470366
24	22548	27	267.43309805394
24	23184	27.5	272.4055531796
24	24299	28	277.36280320138
24	24652	28.5	282.34277377324
24	26107	29	287.30766930138
24	26474	29.5	292.26753690614
24	27970	30	296.98619997455
24	29226	30.5	300.98103337361
24	29919	31	304.26616501749
24	30624	31.5	306.87414926606
24	31021	32	308.90772638978
24	31757	32.5	310.8589825033
24	32174	33	313.46023861682
24	33820	33.5	316.61401378947
24	34231	34	320.2173527881
24	35560	34.5	324.28725713426
24	35988	35	328.84691264554
24	37732	35.5	333.77404834659
24	38532	36	338.75221253087
24	38985	36.5	343.73259805818
24	40732	37	348.71422415462
24	41551	37.5	353.67165966083
24	43356	38	358.6390580716
24	44191	38.5	363.604893792
24	45990	39	368.5848787486
25	12	0.5	233.25
25	14	1	233.25
25	16	1.5	233.25
25	213	2	233.25
25	372	2.5	233.25
25	374	3	233.25
25	561	3.5	233.25
25	562	4	233.25
25	796	4.5	233.25
25	840	5	233.25
25	906	5.5	233.25
25	1495	6	233.25
25	1824	6.5	233.25
25	1891	7	233.25
25	1970	7.5	233.25
25	2373	8	233.25
25	2456	8.5	233.25
25	2558	9	233.25
25	3424	9.5	233.25
25	3537	10	233.25
25	4044	10.5	233.25
25	4172	11	233.25
25	4331	11.5	233.25
25	4903	12	233.25
25	5056	12.5	233.25
25	5671	13	233.25
25	5829	13.5	233.25
25	6489	14	233.25
25	7138	14.5	233.25
25	7326	15	233.25
25	8045	15.5	233.25
25	8247	16	233.25
25	8997	16.5	233.25
25	9193	17	233.25
25	9422	17.5	233.25
25	9639	18	233.25
25	10468	18.5	233.25
25	11503	19	233.25
25	11946	19.5	233.25
25	12194	20	233.25
25	12691	20.5	233.25
25	13599	21	233.25
25	14110	21.5	233.25
25	15012	22	233.25
25	15301	22.5	233.25
25	16072	23	233.25
25	16627	23.5	233.25
25	17618	24	233.25
25	18606	24.5	233.25
25	19181	25	233.25
25	19511	25.5	233.25
25	20589	26	233.25
25	21477	26.5	233.25
25	22548	27	233.25
25	23184	27.5	233.25
25	24299	28	233.25
25	24652	28.5	233.25
25	26107	29	233.25
25	26474	29.5	233.25
25	27970	30	233.25
25	29226	30.5	233.25
25	29919	31	233.25
25	30624	31.5	233.25
25	31021	32	233.25
25	31757	32.5	233.25
25	32174	33	233.25
25	33820	33.5	233.25
25	34231	34	233.25
25	35560	34.5	233.25
25	35988	35	233.25
25	37732	35.5	233.25
25	38532	36	233.25
25	38985	36.5	233.25
25	40732	37	233.25
25	41551	37.5	233.25
25	43356	38	233.25
25	44191	38.5	233.25
25	45990	39	233.25
26	14	1	42.088789456655
26	16	1.5	42.088789456655
26	213	2	45.515249427657
26	372	2.5	49.25657421044
26	374	3	53.454409765122
26	561	3.5	58.162972307009
26	562	4	63.128759261997
26	796	4.5	68.111429639883
26	840	5	73.077625378827
26	906	5.5	78.045332866313
26	1495	6	83.01335279357
26	1824	6.5	87.965254504977
26	1891	7	92.936190244825
26	1970	7.5	97.597531331855
26	2373	8	101.50597850931
26	2456	8.5	104.68928794576
26	2558	9	107.22354495556
26	3424	9.5	109.15968882837
26	3537	10	111.26559044786
26	4044	10.5	114.01702519586
26	4172	11	117.35058318266
26	4331	11.5	121.19799883906
26	4903	12	125.56070660797
26	5056	12.5	130.40647275884
26	5671	13	135.36383626715
26	5829	13.5	140.32985948736
26	6489	14	145.29966863173
26	7138	14.5	150.27329034002
26	7326	15	155.24349460286
26	8045	15.5	160.20090377374
26	8247	16	165.18785191254
26	8997	16.5	170.16653489106
26	9193	17	175.1281988139
26	9422	17.5	180.10242916536
26	9639	18	185.07056337329
26	10468	18.5	190.04392497693
26	11503	19	194.96452064458
26	11946	19.5	199.29953122617
26	12194	20	202.8960593149
26	12691	20.5	205.80546838305
26	13599	21	208.07961696928
26	14110	21.5	209.93443842758
26	15012	22	212.30623233546
26	15301	22.5	215.29375930594
26	16072	23	218.79050520906
26	16627	23.5	222.8049499507
26	17618	24	227.30606087399
26	18606	24.5	232.23003491457
26	19181	25	237.20654742662
26	19511	25.5	242.18401233681
26	20589	26	247.14682966262
26	21477	26.5	252.12180725616
26	22548	27	257.09587218481
26	23184	27.5	262.06841340905
26	24299	28	267.04456686154
26	24652	28.5	272.00609253769
26	26107	29	276.95482826508
26	26474	29.5	281.92048571419
26	27970	30	286.88100285743
26	29226	30.5	291.83846139367
26	29919	31	296.62718296703
26	30624	31.5	300.69475707843
26	31021	32	304.03087506575
26	31757	32.5	306.70017648635
26	32174	33	308.76481399793
26	33820	33.5	310.59744889512
26	34231	34	313.03250884093
26	35560	34.5	316.0539687348
26	35988	35	319.54829880605
26	37732	35.5	323.55436439831
26	38532	36	328.03258137449
26	38985	36.5	332.95064196861
26	40732	37	337.93028733864
26	41551	37.5	342.88324564028
26	43356	38	347.85508277528
26	44191	38.5	352.83725806219
26	45990	39	357.78992491341
27	14	1	233.25
27	16	1.5	233.25
27	213	2	233.25
27	372	2.5	229.95
27	374	3	229.95
27	561	3.5	229.95
27	562	4	229.95
27	796	4.5	229.95
27	840	5	229.95
27	906	5.5	229.95
27	1495	6	229.95
27	1824	6.5	229.95
27	1891	7	229.95
27	1970	7.5	229.95
27	2373	8	229.95
27	2456	8.5	229.95
27	2558	9	229.95
27	3424	9.5	229.95
27	3537	10	229.95
27	4044	10.5	229.95
27	4172	11	229.95
27	4331	11.5	229.95
27	4903	12	229.95
27	5056	12.5	229.95
27	5671	13	229.95
27	5829	13.5	229.95
27	6489	14	229.95
27	7138	14.5	229.95
27	7326	15	229.95
27	8045	15.5	229.95
27	8247	16	229.95
27	8997	16.5	229.95
27	9193	17	229.95
27	9422	17.5	229.95
27	9639	18	229.95
27	10468	18.5	229.95
27	11503	19	229.95
27	11946	19.5	229.95
27	12194	20	229.95
27	12691	20.5	229.95
27	13599	21	229.95
27	14110	21.5	229.95
27	15012	22	229.95
27	15301	22.5	229.95
27	16072	23	229.95
27	16627	23.5	229.95
27	17618	24	229.95
27	18606	24.5	229.95
27	19181	25	229.95
27	19511	25.5	229.95
27	20589	26	229.95
27	21477	26.5	229.95
27	22548	27	229.95
27	23184	27.5	229.95
27	24299	28	229.95
27	24652	28.5	229.95
27	26107	29	229.95
27	26474	29.5	229.95
27	27970	30	229.95
27	29226	30.5	229.95
27	29919	31	229.95
27	30624	31.5	229.95
27	31021	32	229.95
27	31757	32.5	229.95
27	32174	33	229.95
27	33820	33.5	229.95
27	34231	34	229.95
27	35560	34.5	229.95
27	35988	35	229.95
27	37732	35.5	229.95
27	38532	36	229.95
27	38985	36.5	229.95
27	40732	37	229.95
27	41551	37.5	229.95
27	43356	38	229.95
27	44191	38.5	229.95
27	45990	39	229.95
28	14	1	9.9449248764175
28	16	1.5	9.9501526022283
28	213	2	9.9157376560476
28	372	2.5	9.8985312071652
28	374	3	9.9718484536279
28	561	3.5	9.9870935542998
28	562	4	9.9728460213845
28	796	4.5	9.9982356865564
28	840	5	9.9461458115117
28	906	5.5	9.5514715687012
28	1495	6	8.0005858660285
28	1824	6.5	6.5496512055131
28	1891	7	5.3310954346686
28	1970	7.5	4.1151864756515
28	2373	8	3.9382051345725
28	2456	8.5	5.2382051345725
28	2558	9	6.4297354377476
28	3424	9.5	7.4255192291104
28	3537	10	8.2422347955448
28	4044	10.5	9.3620894036019
28	4172	11	9.9832481261995
28	4331	11.5	9.9482035463606
28	4903	12	9.9940642465441
28	5056	12.5	9.9696553667728
28	5671	13	9.9806978491391
28	5829	13.5	9.9274515372282
28	6489	14	9.9506837102701
28	7138	14.5	9.9115546727343
28	7326	15	9.9224925546395
28	8045	15.5	9.9071894639311
28	8247	16	9.9489660583134
28	8997	16.5	9.883605135188
28	9193	17	9.9191834929166
28	9422	17.5	8.9833393956982
28	9639	18	7.5718131653859
28	10468	18.5	6.1017912063418
28	11503	19	4.7897391814817
28	11946	19.5	3.7406098374653
28	12194	20	4.1215893309665
28	12691	20.5	5.4215893309665
28	13599	21	6.329904628192
28	14110	21.5	7.2870632196669
28	15012	22	8.2694472740762
28	15301	22.5	9.1018519698092
28	16072	23	9.9921898651216
28	16627	23.5	9.9164355609589
28	17618	24	9.8799893268524
28	18606	24.5	9.8701915452443
28	19181	25	9.9113948465511
28	19511	25.5	9.9587414129195
28	20589	26	9.9636424442753
28	21477	26.5	9.9920051765442
28	22548	27	9.8926614938793
28	23184	27.5	9.8952952482528
28	24299	28	9.9997927061724
28	24652	28.5	9.8821519803396
28	26107	29	9.9452344585652
28	26474	29.5	8.839263917587
28	27970	30	7.4185523943775
28	29226	30.5	5.9752065253455
28	29919	31	4.6969893230287
28	30624	31.5	3.6325510461784
28	31021	32	4.4225122270442
28	31757	32.5	5.7225122270442
28	32174	33	6.6936025145895
28	33820	33.5	7.5462633622636
28	34231	34	8.5454338641384
28	35560	34.5	9.4739296562702
28	35988	35	9.8980692037451
28	37732	35.5	9.9954677639878
28	38532	36	9.9476957011409
28	38985	36.5	9.9269627569336
28	40732	37	9.8731399663328
28	41551	37.5	9.9509001939115
28	43356	38	9.9134450856247
28	44191	38.5	9.8839941705205
28	45990	39	9.9875579276122
29	16	1.5	0.010455451621674
29	213	2	-0.068829892361535
29	372	2.5	-0.034412897764707
29	374	3	0.14663449292537
29	561	3.5	0.030490201343781
29	562	4	-0.028495065830647
29	796	4.5	0.050779330343939
29	840	5	-0.10417975008953
29	906	5.5	-0.78934848562091
29	1495	6	-3.1017714053455
29	1824	6.5	-2.9018693210308
29	1891	7	-2.4371115416889
29	1970	7.5	-2.4318179180343
29	2373	8	-0.35396268215793
29	2456	8.5	2.6
29	2558	9	2.3830606063502
29	3424	9.5	1.9915675827255
29	3537	10	1.6334311328689
29	4044	10.5	2.2397092161141
29	4172	11	1.2423174451952
29	4331	11.5	-0.070089159677735
29	4903	12	0.091721400367096
29	5056	12.5	-0.048817759542725
29	5671	13	0.022084964732638
29	5829	13.5	-0.10649262382183
29	6489	14	0.046464346083813
29	7138	14.5	-0.078258075071496
29	7326	15	0.02187576381024
29	8045	15.5	-0.030606181416662
29	8247	16	0.08355318876449
29	8997	16.5	-0.13072184625082
29	9193	17	0.071156715457327
29	9422	17.5	-1.8716881944369
29	9639	18	-2.8230524606245
29	10468	18.5	-2.9400439180883
29	11503	19	-2.6241040497202
29	11946	19.5	-2.0982586880329
29	12194	20	0.76195898700251
29	12691	20.5	2.6
29	13599	21	1.816630594451
29	14110	21.5	1.9143171829497
29	15012	22	1.9647681088187
29	15301	22.5	1.664809391466
29	16072	23	1.7806757906248
29	16627	23.5	-0.15150860832539
29	17618	24	-0.072892468213102
29	18606	24.5	-0.019595563216136
29	19181	25	0.082406602613627
29	19511	25.5	0.094693132736719
29	20589	26	0.0098020627116782
29	21477	26.5	0.056725464537742
29	22548	27	-0.19868736532982
29	23184	27.5	0.0052675087470568
29	24299	28	0.20899491583928
29	24652	28.5	-0.2352814516658
29	26107	29	0.12616495645139
29	26474	29.5	-2.2119410819565
29	27970	30	-2.841423046419
29	29226	30.5	-2.8866917380639
29	29919	31	-2.5564344046336
29	30624	31.5	-2.1288765537006
29	31021	32	1.5799223617316
29	31757	32.5	2.6
29	32174	33	1.9421805750905
29	33820	33.5	1.7053216953482
29	34231	34	1.9983410037495
29	35560	34.5	1.8569915842637
29	35988	35	0.84827909494977
29	37732	35.5	0.19479712048546
29	38532	36	-0.095544125693852
29	38985	36.5	-0.041465888414532
29	40732	37	-0.10764558120165
29	41551	37.5	0.15552045515738
29	43356	38	-0.074910216573628
29	44191	38.5	-0.058901830208487
29	45990	39	0.20712751418352
30	16	1.5	1.7060716969831
30	213	2	1.5139161715805
30	372	2.5	1.5950068393173
30	374	3	2.035037144087
30	561	3.5	1.757185596493
30	562	4	1.6142318435782
30	796	4.5	1.8070014773367
30	840	5	1.4309754169702
30	906	5.5	0.973
30	1495	6	0.973
30	1824	6.5	0.973
30	1891	7	0.973
30	1970	7.5	0.973
30	2373	8	0.973
30	2456	8.5	4.6582279718896
30	2558	9	5.1374363843202
30	3424	9.5	5.0700398388169
30	3537	10	4.803943880445
30	4044	10.5	6.6908052632268
30	4172	11	4.6724768480477
30	4331	11.5	1.5128122162746
30	4903	12	1.9052455013016
30	5056	12.5	1.5651828497487
30	5671	13	1.7364358725524
30	5829	13.5	1.4244978223792
30	6489	14	1.7924666910663
30	7138	14.5	1.4911488839337
30	7326	15	1.7312204781938
30	8045	15.5	1.6046770594861
30	8247	16	1.8812454200024
30	8997	16.5	1.3646029139714
30	9193	17	1.8487604027486
30	9422	17.5	0.973
30	9639	18	0.973
30	10468	18.5	0.973
30	11503	19	0.973
30	11946	19.5	0.973
30	12194	20	2.0721495917386
30	12691	20.5	4.7834268604903
30	13599	21	4.2100668786964
30	14110	21.5	4.859163995231
30	15012	22	5.4768166666976
30	15301	22.5	5.2705664167946
30	16072	23	5.9722628323879
30	16627	23.5	1.3163666435784
30	17618	24	1.5021407740408
30	18606	24.5	1.6283536654238
30	19181	25	1.8749109020596
30	19511	25.5	1.9089187360919
30	20589	26	1.7055581331663
30	21477	26.5	1.8207708945643
30	22548	27	1.2029611529316
30	23184	27.5	1.6894182237318
30	24299	28	2.1884304416372
30	24652	28.5	0.973
30	26107	29	1.9830198907939
30	26474	29.5	0.973
30	27970	30	0.973
30	29226	30.5	0.973
30	29919	31	0.973
30	30624	31.5	0.973
30	31021	32	3.0152540546883
30	31757	32.5	4.9890915787648
30	32174	33	4.5936485536677
30	33820	33.5	4.6151121369457
30	34231	34	5.6953610118211
30	35560	34.5	5.8854902777286
30	35988	35	3.7005799287032
30	37732	35.5	2.1536829865248
30	38532	36	1.4517567682646
30	38985	36.5	1.5800432719495
30	40732	37	1.4190530344417
30	41551	37.5	2.0540202551754
30	43356	38	1.4992544048827
30	44191	38.5	1.5356982947589
30	45990	39	2.1823905170191
31	16	1.5	7.0435477496681
31	213	2	7.8674262773347
31	372	2.5	8.733730470681
31	374	3	9.8381868126555
31	561	3.5	9.9093079445953
31	562	4	9.986734175114
31	796	4.5	9.9138715071534
31	840	5	9.9586621874711
31	906	5.5	9.9761851227493
31	1495	6	9.9090676939278
31	1824	6.5	9.9196579945018
31	1891	7	8.7304023776014
31	1970	7.5	7.2193778085313
31	2373	8	5.8270597508357
31	2456	8.5	4.5873881429229
31	2558	9	3.4318032389826
31	3424	9.5	4.7318032389826
31	3537	10	5.9871345240499
31	4044	10.5	7.0786627816216
31	4172	11	8.0959050214796
31	4331	11.5	9.0868256034812
31	4903	12	9.9468229677505
31	5056	12.5	9.9534460282372
31	5671	13	9.9289049634291
31	5829	13.5	9.9515517203114
31	6489	14	9.8866678542062
31	7138	14.5	9.9573615601356
31	7326	15	9.8783418296953
31	8045	15.5	9.9582644112897
31	8247	16	9.9875694151898
31	8997	16.5	9.9510236352845
31	9193	17	9.9535347958189
31	9422	17.5	9.9955708006234
31	9639	18	9.9547350474983
31	10468	18.5	9.5530977515295
31	11503	19	8.0581618855527
31	11946	19.5	6.6498707735602
31	12194	20	5.3133727499205
31	12691	20.5	4.1255836373817
31	13599	21	3.9635878157621
31	14110	21.5	5.2635878157621
31	15012	22	6.3706057463056
31	15301	22.5	7.4194457244785
31	16072	23	8.4868119621724
31	16627	23.5	9.3712451126734
31	17618	24	9.9863376894989
31	18606	24.5	9.9828951202706
31	19181	25	9.9898609343148
31	19511	25.5	9.8770939739537
31	20589	26	9.9389800345153
31	21477	26.5	9.9589895297517
31	22548	27	9.9070714360778
31	23184	27.5	9.946210133126
31	24299	28	9.9234259540285
31	24652	28.5	9.9276032945421
31	26107	29	9.9132356908661
31	26474	29.5	9.9829548897012
31	27970	30	9.92286248249
31	29226	30.5	9.0923969376652
31	29919	31	7.5689421286954
31	30624	31.5	6.1509274687085
31	31021	32	4.8021971963422
31	31757	32.5	3.6580101735613
31	32174	33	4.0901198916148
31	33820	33.5	5.3901198916148
31	34231	34	6.4044143337232
31	35560	34.5	7.4025508534593
31	35988	35	8.3871953948342
31	37732	35.5	9.379126595481
31	38532	36	9.8976425738819
31	38985	36.5	9.9413372445176
31	40732	37	9.8829159066547
31	41551	37.5	9.9019089337462
31	43356	38	9.9982620120444
31	44191	38.5	9.9689093134296
31	45990	39	9.9148866615165
32	19	1.565943340631	56
32	42	1.565958580631	72
32	847	5	104
32	3553	10	104
32	7352	15	104
32	12228	20	104
32	19223	25	104
32	28021	30	104
32	36047	35	104
33	21	1.565943340631	74
33	44	1.565958580631	90
33	853	5	122
33	3563	10	122
33	7367	15	122
33	12247	20	122
33	19246	25	122
33	28050	30	122
33	36081	35	122
34	21	1.565943340631	0
34	44	1.565958580631	0
34	853	5	0
34	3563	10	0
34	7367	15	0
34	12247	20	0
34	19246	25	0
34	28050	30	0
34	36081	35	0
35	23	1.565943340631	74
35	46	1.565958580631	90
35	855	5	122
35	3565	10	122
35	7369	15	122
35	12249	20	122
35	19248	25	122
35	28053	30	122
35	36084	35	122
36	24	1.565949900631	74
36	48	1.565966420631	90
36	856	5.0000104	122
36	3566	10.0000104	122
36	7370	15.0000104	122
36	12250	20.0000104	122
36	19249	25.0000104	122
36	28054	30.0000104	122
36	36085	35.0000104	122
37	25	1.565950000631	74
37	49	1.565966520631	90
37	857	5.0000105	122
37	3567	10.0000105	122
37	7371	15.0000105	122
37	12251	20.0000105	122
37	19250	25.0000105	122
37	28055	30.0000105	122
37	36086	35.0000105	122
38	25	1.565950000631	74
38	49	1.565966520631	90
38	857	5.0000105	122
38	3567	10.0000105	122
38	7371	15.0000105	122
38	12251	20.0000105	122
38	19250	25.0000105	122
38	28055	30.0000105	122
38	36086	35.0000105	122
39	26	1.565950000631	56
39	50	1.565966520631	72
39	858	5.0000105	104
39	3568	10.0000105	104
39	7372	15.0000105	104
39	12252	20.0000105	104
39	19251	25.0000105	104
39	28056	30.0000105	104
39	36087	35.0000105	104
40	30	1.565950000631	80
40	54	1.565966520631	72
41	32	1.565950000631	98
41	56	1.565966520631	90
42	32	1.565950000631	0
42	56	1.565966520631	0
43	34	1.565950000631	98
43	58	1.565966520631	90
44	36	1.565958480631	98
44	60	1.565974360631	90
45	37	1.565958580631	98
45	61	1.565974460631	90
46	37	1.565958580631	98
46	61	1.565974460631	90
47	38	1.565958580631	80
47	62	1.565974460631	72
48	140	1.923730778595	72
48	303	2.167039208339	72
48	481	3.099906623228	72
48	699	4.210120035149	72
48	1077	5.510172403943	72
48	1376	5.859729825875	72
48	1706	6.370370309097	72
48	2180	7.502491812447	72
48	2834	9.113609839864	72
48	3231	9.281882205788	72
48	3874	10.364938671853	72
48	4649	11.639407823688	72
48	5430	12.737414261967	72
48	6300	13.979852878462	72
48	6817	14.038431303117	72
48	7846	15.415235880811	72
48	8788	16.415391866093	72
48	10238	18.40573884335	72
48	10877	18.570514329624	72
48	13194	20.641893847187	72
48	14610	21.653570947798	72
48	17113	23.503742467743	72
48	18274	24.321013922966	72
48	20230	25.872256041989	72
48	22121	26.775633880409	72
48	23922	27.889868133399	72
48	25783	28.924750256957	72
48	27493	29.779764521884	72
48	28881	30.437693893363	72
48	32870	33.131162476955	72
48	34854	34.092100684267	72
48	37356	35.490514816035	72
48	39637	36.508354019759	72
48	42774	37.761098487046	72
48	45504	38.825494785311	72
49	142	1.923730778595	90
49	305	2.167039208339	90
49	483	3.099906623228	90
49	701	4.210120035149	90
49	1079	5.510172403943	90
49	1378	5.859729825875	90
49	1708	6.370370309097	90
49	2182	7.502491812447	90
49	2836	9.113609839864	90
49	3233	9.281882205788	90
49	3876	10.364938671853	90
49	4651	11.639407823688	90
49	5432	12.737414261967	90
49	6302	13.979852878462	90
49	6819	14.038431303117	90
49	7848	15.415235880811	90
49	8790	16.415391866093	90
49	10240	18.40573884335	90
49	10879	18.570514329624	90
49	13196	20.641893847187	90
49	14612	21.653570947798	90
49	17115	23.503742467743	90
49	18276	24.321013922966	90
49	20232	25.872256041989	90
49	22123	26.775633880409	90
49	23924	27.889868133399	90
49	25785	28.924750256957	90
49	27495	29.779764521884	90
49	28883	30.437693893363	90
49	32872	33.131162476955	90
49	34856	34.092100684267	90
49	37358	35.490514816035	90
49	39639	36.508354019759	90
49	42776	37.761098487046	90
49	45506	38.825494785311	90
50	142	1.923730778595	0
50	305	2.167039208339	0
50	483	3.099906623228	0
50	701	4.210120035149	0
50	1079	5.510172403943	0
50	1378	5.859729825875	0
50	1708	6.370370309097	0
50	2182	7.502491812447	0
50	2836	9.113609839864	0
50	3233	9.281882205788	0
50	3876	10.364938671853	0
50	4651	11.639407823688	0
50	5432	12.737414261967	0
50	6302	13.979852878462	0
50	6819	14.038431303117	0
50	7848	15.415235880811	0
50	8790	16.415391866093	0
50	10240	18.40573884335	0
50	10879	18.570514329624	0
50	13196	20.641893847187	0
50	14612	21.653570947798	0
50	17115	23.503742467743	0
50	18276	24.321013922966	0
50	20232	25.872256041989	0
50	22123	26.775633880409	0
50	23924	27.889868133399	0
50	25785	28.924750256957	0
50	27495	29.779764521884	0
50	28883	30.437693893363	0
50	32872	33.131162476955	0
50	34856	34.092100684267	0
50	37358	35.490514816035	0
50	39639	36.508354019759	0
50	42776	37.761098487046	0
50	45506	38.825494785311	0
51	144	1.923730778595	90
51	307	2.167039208339	90
51	485	3.099906623228	90
51	703	4.210120035149	90
51	1081	5.510172403943	90
51	1380	5.859729825875	90
51	1710	6.370370309097	90
51	2184	7.502491812447	90
51	2838	9.113609839864	90
51	3235	9.281882205788	90
51	3878	10.364938671853	90
51	4653	11.639407823688	90
51	5434	12.737414261967	90
51	6304	13.979852878462	90
51	6821	14.038431303117	90
51	7850	15.415235880811	90
51	8792	16.415391866093	90
51	10242	18.40573884335	90
51	10881	18.570514329624	90
51	13198	20.641893847187	90
51	14614	21.653570947798	90
51	17117	23.503742467743	90
51	18278	24.321013922966	90
51	20234	25.872256041989	90
51	22125	26.775633880409	90
51	23926	27.889868133399	90
51	25787	28.924750256957	90
51	27497	29.779764521884	90
51	28885	30.437693893363	90
51	32874	33.131162476955	90
51	34858	34.092100684267	90
51	37360	35.490514816035	90
51	39641	36.508354019759	90
51	42778	37.761098487046	90
51	45508	38.825494785311	90
52	146	1.923738618595	90
52	309	2.167047048339	90
52	487	3.099914463228	90
52	705	4.210127875149	90
52	1083	5.510180243943	90
52	1382	5.859737665875	90
52	1712	6.370378149097	90
52	2186	7.502499652447	90
52	2840	9.113617679864	90
52	3237	9.281890045788	90
52	3880	10.364946511853	90
52	4655	11.639415663688	90
52	5436	12.737422101967	90
52	6306	13.979860718462	90
52	6823	14.038439143117	90
52	7852	15.415243720811	90
52	8794	16.415399706093	90
52	10244	18.40574668335	90
52	10883	18.570522169624	90
52	13200	20.641901687187	90
52	14616	21.653578787798	90
52	17122	23.503750307743	90
52	18286	24.321021762966	90
52	20242	25.872263881989	90
52	22139	26.775641720409	90
52	23940	27.889875973399	90
52	25804	28.924758096957	90
52	27515	29.779772361884	90
52	28906	30.437701733363	90
52	32899	33.131170316955	90
52	34879	34.092108524267	90
52	37385	35.490522656035	90
52	39666	36.508361859759	90
52	42805	37.761106327046	90
52	45535	38.825502625311	90
53	147	1.923738718595	90
53	310	2.167047148339	90
53	488	3.099914563228	90
53	706	4.210127975149	90
53	1084	5.510180343943	90
53	1383	5.859737765875	90
53	1713	6.370378249097	90
53	2187	7.502499752447	90
53	2841	9.113617779864	90
53	3238	9.281890145788	90
53	3881	10.364946611853	90
53	4656	11.639415763688	90
53	5437	12.737422201967	90
53	6307	13.979860818462	90
53	6824	14.038439243117	90
53	7853	15.415243820811	90
53	8795	16.415399806093	90
53	10245	18.40574678335	90
53	10884	18.570522269624	90
53	13201	20.641901787187	90
53	14617	21.653578887798	90
53	17123	23.503750407743	90
53	18287	24.321021862966	90
53	20243	25.872263981989	90
53	22140	26.775641820409	90
53	23941	27.889876073399	90
53	25805	28.924758196957	90
53	27516	29.779772461884	90
53	28907	30.437701833363	90
53	32900	33.131170416955	90
53	34880	34.092108624267	90
53	37386	35.490522756035	90
53	39667	36.508361959759	90
53	42806	37.761106427046	90
53	45536	38.825502725311	90
54	147	1.923738718595	90
54	310	2.167047148339	90
54	488	3.099914563228	90
54	706	4.210127975149	90
54	1084	5.510180343943	90
54	1383	5.859737765875	90
54	1713	6.370378249097	90
54	2187	7.502499752447	90
54	2841	9.113617779864	90
54	3238	9.281890145788	90
54	3881	10.364946611853	90
54	4656	11.639415763688	90
54	5437	12.737422201967	90
54	6307	13.979860818462	90
54	6824	14.038439243117	90
54	7853	15.415243820811	90
54	8795	16.415399806093	90
54	10245	18.40574678335	90
54	10884	18.570522269624	90
54	13201	20.641901787187	90
54	14617	21.653578887798	90
54	17123	23.503750407743	90
54	18287	24.321021862966	90
54	20243	25.872263981989	90
54	22140	26.775641820409	90
54	23941	27.889876073399	90
54	25805	28.924758196957	90
54	27516	29.779772461884	90
54	28907	30.437701833363	90
54	32900	33.131170416955	90
54	34880	34.092108624267	90
54	37386	35.490522756035	90
54	39667	36.508361959759	90
54	42806	37.761106427046	90
54	45536	38.825502725311	90
55	148	1.923738718595	72
55	311	2.167047148339	72
55	489	3.099914563228	72
55	707	4.210127975149	72
55	1085	5.510180343943	72
55	1384	5.859737765875	72
55	1714	6.370378249097	72
55	2188	7.502499752447	72
55	2842	9.113617779864	72
55	3239	9.281890145788	72
55	3882	10.364946611853	72
55	4657	11.639415763688	72
55	5438	12.737422201967	72
55	6308	13.979860818462	72
55	6825	14.038439243117	72
55	7854	15.415243820811	72
55	8796	16.415399806093	72
55	10246	18.40574678335	72
55	10885	18.570522269624	72
55	13202	20.641901787187	72
55	14618	21.653578887798	72
55	17124	23.503750407743	72
55	18288	24.321021862966	72
55	20244	25.872263981989	72
55	22141	26.775641820409	72
55	23942	27.889876073399	72
55	25806	28.924758196957	72
55	27517	29.779772461884	72
55	28908	30.437701833363	72
55	32901	33.131170416955	72
55	34881	34.092108624267	72
55	37387	35.490522756035	72
55	39668	36.508361959759	72
55	42807	37.761106427046	72
55	45537	38.825502725311	72
56	213	2	44.272440925347
56	372	2.5	44.272440925347
56	374	3	48.977135842407
56	561	3.5	53.730948180067
56	562	4	58.530008284206
56	796	4.5	63.351615093613
56	840	5	68.200349043318
56	906	5.5	73.069441908189
56	1495	6	77.941171826238
56	1824	6.5	82.473096734871
56	1891	7	86.498382453148
56	1970	7.5	90.03673043709
56	2373	8	93.128749449645
56	2456	8.5	95.823115464139
56	2558	9	98.512617581898
56	3424	9.5	101.47179020552
56	3537	10	104.58715330653
56	4044	10.5	107.14469741505
56	4172	11	109.09934842522
56	4331	11.5	110.99436936824
56	4903	12	113.53939031127
56	5056	12.5	116.61254445601
56	5671	13	120.11818812957
56	5829	13.5	124.10153843793
56	6489	14	128.60483764612
56	7138	14.5	133.50106649528
56	7326	15	138.46665826223
56	8045	15.5	143.42278523287
56	8247	16	148.39056374224
56	8997	16.5	153.34438855236
56	9193	17	158.31505394073
56	9422	17.5	163.28921176996
56	9639	18	168.26936800947
56	10468	18.5	173.232702113
56	11503	19	178.19800231202
56	11946	19.5	183.09445712559
56	12194	20	187.48116900938
56	12691	20.5	191.3649721943
56	13599	21	195.07582786631
56	14110	21.5	198.85695283149
56	15012	22	202.50252245328
56	15301	22.5	205.49247434306
56	16072	23	207.82549969373
56	16627	23.5	209.67877150683
56	17618	24	211.91565865301
56	18606	24.5	214.77830129787
56	19181	25	218.10767955762
56	19511	25.5	221.87925570557
56	20589	26	226.1237387558
56	21477	26.5	230.88316481633
56	22548	27	235.83388290003
56	23184	27.5	240.79255911359
56	24299	28	245.75190062617
56	24652	28.5	250.72704637904
56	26107	29	255.70616924139
56	26474	29.5	260.6746062986
56	27970	30	265.64415383811
56	29226	30.5	270.61123388354
56	29919	31	275.58122743361
56	30624	31.5	280.55661182649
56	31021	32	285.33986367132
56	31757	32.5	289.6126460881
56	32174	33	293.73348088439
56	33820	33.5	297.85618990075
56	34231	34	301.71145967963
56	35560	34.5	304.86197178585
56	35988	35	307.3585123954
56	37732	35.5	309.26873696794
56	38532	36	311.38006504115
56	38985	36.5	314.13190059562
56	40732	37	317.41959029009
56	41551	37.5	321.16909771005
56	43356	38	325.38164966245
56	44191	38.5	330.07870349822
56	45990	39	335.04377330302
57	213	2	233.25
57	372	2.5	233.25
57	374	3	233.25
57	561	3.5	233.25
57	562	4	233.25
57	796	4.5	233.25
57	840	5	233.25
57	906	5.5	233.25
57	1495	6	233.25
57	1824	6.5	233.25
57	1891	7	233.25
57	1970	7.5	233.25
57	2373	8	233.25
57	2456	8.5	233.25
57	2558	9	233.25
57	3424	9.5	233.25
57	3537	10	233.25
57	4044	10.5	233.25
57	4172	11	233.25
57	4331	11.5	233.25
57	4903	12	233.25
57	5056	12.5	233.25
57	5671	13	233.25
57	5829	13.5	233.25
57	6489	14	233.25
57	7138	14.5	233.25
57	7326	15	233.25
57	8045	15.5	233.25
57	8247	16	233.25
57	8997	16.5	233.25
57	9193	17	233.25
57	9422	17.5	233.25
57	9639	18	233.25
57	10468	18.5	233.25
57	11503	19	233.25
57	11946	19.5	233.25
57	12194	20	233.25
57	12691	20.5	233.25
57	13599	21	233.25
57	14110	21.5	233.25
57	15012	22	233.25
57	15301	22.5	233.25
57	16072	23	233.25
57	16627	23.5	233.25
57	17618	24	233.25
57	18606	24.5	233.25
57	19181	25	233.25
57	19511	25.5	233.25
57	20589	26	233.25
57	21477	26.5	233.25
57	22548	27	233.25
57	23184	27.5	233.25
57	24299	28	233.25
57	24652	28.5	233.25
57	26107	29	233.25
57	26474	29.5	233.25
57	27970	30	233.25
57	29226	30.5	233.25
57	29919	31	233.25
57	30624	31.5	233.25
57	31021	32	233.25
57	31757	32.5	233.25
57	32174	33	233.25
57	33820	33.5	233.25
57	34231	34	233.25
57	35560	34.5	233.25
57	35988	35	233.25
57	37732	35.5	233.25
57	38532	36	233.25
57	38985	36.5	233.25
57	40732	37	233.25
57	41551	37.5	233.25
57	43356	38	233.25
57	44191	38.5	233.25
57	45990	39	233.25
58	213	2	1.6477570553333
58	372	2.5	1.7326083866926
58	374	3	2.2089126839489
58	561	3.5	0.14224226387979
58	562	4	0.15485246103723
58	796	4.5	-0.14572533592116
58	840	5	0.089581360635346
58	906	5.5	0.035045870556498
58	1495	6	-0.13423485764303
58	1824	6.5	0.021180601147936
58	1891	7	-2.3785112338006
58	1970	7.5	-3.0220491381402
58	2373	8	-2.7846361153912
58	2456	8.5	-2.4793432158256
58	2558	9	-2.3111698078807
58	3424	9.5	2.6
58	3537	10	2.5106625701347
58	4044	10.5	2.1830565151433
58	4172	11	2.034484479716
58	4331	11.5	1.9818411640031
58	4903	12	1.7199947285387
58	5056	12.5	0.013246120973491
58	5671	13	-0.049082129616291
58	5829	13.5	0.04529351376463
58	6489	14	-0.12976773221046
58	7138	14.5	0.14138741185889
58	7326	15	-0.15803946088068
58	8045	15.5	0.15984516318888
58	8247	16	0.058610007800159
58	8997	16.5	-0.073091559810564
58	9193	17	0.0050223210686831
58	9422	17.5	0.084072009609081
58	9639	18	-0.081671506250277
58	10468	18.5	-0.80327459193755
58	11503	19	-2.9898717319536
58	11946	19.5	-2.8165822239849
58	12194	20	-2.6729960472794
58	12691	20.5	-2.3755782250776
58	13599	21	-0.32399164323924
58	14110	21.5	2.6
58	15012	22	2.214035861087
58	15301	22.5	2.0976799563458
58	16072	23	2.1347324753879
58	16627	23.5	1.768866301002
58	17618	24	1.230185153651
58	18606	24.5	-0.0068851384567097
58	19181	25	0.013931628088468
58	19511	25.5	-0.22553392072208
58	20589	26	0.12377212112304
58	21477	26.5	0.040018990472891
58	22548	27	-0.10383618734777
58	23184	27.5	0.078277394096368
58	24299	28	-0.045568358195013
58	24652	28.5	0.0083546810271216
58	26107	29	-0.028735207351858
58	26474	29.5	0.13943839767017
58	27970	30	-0.12018481442239
58	29226	30.5	-1.6609310896497
58	29919	31	-3.0469096179394
58	30624	31.5	-2.8360293199738
58	31021	32	-2.6974605447327
58	31757	32.5	-2.2883740455617
58	32174	33	0.86421943610704
58	33820	33.5	2.6
58	34231	34	2.0285888842167
58	35560	34.5	1.9962730394723
58	35988	35	1.9692890827497
58	37732	35.5	1.9838624012936
58	38532	36	1.0370319568018
58	38985	36.5	0.087389341271482
58	40732	37	-0.11684267572593
58	41551	37.5	0.037986054182987
58	43356	38	0.19270615659654
58	44191	38.5	-0.058705397229641
58	45990	39	-0.10804530382622
59	213	2	4.6587392803339
59	372	2.5	5.2397016737622
59	374	3	6.9098993968821
59	561	3.5	2.0176081091314
59	562	4	2.0564711373917
59	796	4.5	1.3300843610787
59	840	5	1.8966424835385
59	906	5.5	1.7672310296261
59	1495	6	1.3573307920769
59	1824	6.5	1.7293295921237
59	1891	7	0.973
59	1970	7.5	0.973
59	2373	8	0.973
59	2456	8.5	0.973
59	2558	9	0.973
59	3424	9.5	4.3129971684632
59	3537	10	5.0412786917486
59	4044	10.5	5.2084430519737
59	4172	11	5.5190753023354
59	4331	11.5	5.9577440538436
59	4903	12	5.8038921324569
59	5056	12.5	1.7130234688524
59	5671	13	1.5619459622796
59	5829	13.5	1.7897340696907
59	6489	14	1.3670104672811
59	7138	14.5	2.0208361503127
59	7326	15	1.2993379041258
59	8045	15.5	2.0652328061091
59	8247	16	1.8249096962308
59	8997	16.5	1.5057776451802
59	9193	17	1.6933032048994
59	9422	17.5	1.8869663220188
59	9639	18	1.4854091231738
59	10468	18.5	0.973
59	11503	19	0.973
59	11946	19.5	0.973
59	12194	20	0.973
59	12691	20.5	0.973
59	13599	21	0.973
59	14110	21.5	4.6755511746687
59	15012	22	4.8404470996839
59	15301	22.5	5.2564771281523
59	16072	23	5.9420869516031
59	16627	23.5	5.6330268944141
59	17618	24	4.6444373864798
59	18606	24.5	1.6669157108482
59	19181	25	1.717550247167
59	19511	25.5	0.973
59	20589	26	1.9766251304632
59	21477	26.5	1.7777188776109
59	22548	27	1.4298247549893
59	23184	27.5	1.8683351285758
59	24299	28	1.5700002002611
59	24652	28.5	1.6992835875135
59	26107	29	1.6095586246218
59	26474	29.5	2.018958789497
59	27970	30	1.3915253006626
59	29226	30.5	0.973
59	29919	31	0.973
59	30624	31.5	0.973
59	31021	32	0.973
59	31757	32.5	0.973
59	32174	33	2.1655057376829
59	33820	33.5	4.7619351574518
59	34231	34	4.5742692788127
59	35560	34.5	5.0659524763362
59	35988	35	5.5496533985826
59	37732	35.5	6.1229295601539
59	38532	36	4.1506987618197
59	38985	36.5	1.8897055733577
59	40732	37	1.3976298900482
59	41551	37.5	1.7680034848901
59	43356	38	2.1489880032592
59	44191	38.5	1.5413799682835
59	45990	39	1.4201613067219
60	372	2.5	41.45
60	374	3	41.45
60	561	3.5	44.524138551815
60	562	4	47.964536233094
60	796	4.5	51.729826381486
60	840	5	55.953524139363
60	906	5.5	60.653274348886
60	1495	6	65.579065686874
60	1824	6.5	70.508103464498
60	1891	7	75.440079192214
60	1970	7.5	80.25113140686
60	2373	8	84.557335614698
60	2456	8.5	88.454417057129
60	2558	9	92.757027449459
60	3424	9.5	97.344527914396
60	3537	10	101.27633583547
60	4044	10.5	104.49695639347
60	4172	11	107.06298680894
60	4331	11.5	109.04397176655
60	4903	12	110.94038289907
60	5056	12.5	113.4867940316
60	5671	13	116.56178683924
60	5829	13.5	120.09871344513
60	6489	14	124.07855992737
60	7138	14.5	128.59546649099
60	7326	15	133.54894689761
60	8045	15.5	138.51001279824
60	8247	16	143.47388985547
60	8997	16.5	148.44346191057
60	9193	17	153.40573714517
60	9422	17.5	158.38068460523
60	9639	18	163.35078313102
60	10468	18.5	168.31380389039
60	11503	19	173.28855139452
60	11946	19.5	178.25990889194
60	12194	20	183.22458346508
60	12691	20.5	188.19460902488
60	13599	21	193.16844271182
60	14110	21.5	197.79392603095
60	15012	22	201.6574017196
60	15301	22.5	204.81965758788
60	16072	23	207.31069105034
60	16627	23.5	209.22441160823
60	17618	24	211.34510199189
60	18606	24.5	214.10301891505
60	19181	25	217.38808765786
60	19511	25.5	221.23846464506
60	20589	26	225.56329245847
60	21477	26.5	230.38353236821
60	22548	27	235.33766627388
60	23184	27.5	240.30346077021
60	24299	28	245.27076112138
60	24652	28.5	250.23937866583
60	26107	29	255.19593362194
60	26474	29.5	260.17249589152
60	27970	30	265.15285801819
60	29226	30.5	270.11097595617
60	29919	31	275.08249515698
60	30624	31.5	280.01731060228
60	31021	32	284.522803839
60	31757	32.5	288.49512511735
60	32174	33	292.27295455533
60	33820	33.5	296.48083719408
60	34231	34	300.55577212464
60	35560	34.5	303.92351394689
60	35988	35	306.61273131551
60	37732	35.5	308.70978864322
60	38532	36	310.52890650251
60	38985	36.5	312.9473310885
60	40732	37	315.93192569835
60	41551	37.5	319.3981714494
60	43356	38	323.35704871061
60	44191	38.5	327.82987167723
60	45990	39	332.7470743909
61	372	2.5	233.25
61	374	3	233.25
61	561	3.5	233.25
61	562	4	233.25
61	796	4.5	229.95
61	840	5	229.95
61	906	5.5	229.95
61	1495	6	229.95
61	1824	6.5	229.95
61	1891	7	229.95
61	1970	7.5	229.95
61	2373	8	229.95
61	2456	8.5	226.65
61	2558	9	226.65
61	3424	9.5	226.65
61	3537	10	226.65
61	4044	10.5	226.65
61	4172	11	226.65
61	4331	11.5	226.65
61	4903	12	226.65
61	5056	12.5	226.65
61	5671	13	226.65
61	5829	13.5	226.65
61	6489	14	226.65
61	7138	14.5	226.65
61	7326	15	226.65
61	8045	15.5	226.65
61	8247	16	226.65
61	8997	16.5	226.65
61	9193	17	226.65
61	9422	17.5	226.65
61	9639	18	226.65
61	10468	18.5	226.65
61	11503	19	226.65
61	11946	19.5	226.65
61	12194	20	226.65
61	12691	20.5	226.65
61	13599	21	226.65
61	14110	21.5	226.65
61	15012	22	226.65
61	15301	22.5	226.65
61	16072	23	226.65
61	16627	23.5	226.65
61	17618	24	226.65
61	18606	24.5	226.65
61	19181	25	226.65
61	19511	25.5	226.65
61	20589	26	226.65
61	21477	26.5	226.65
61	22548	27	226.65
61	23184	27.5	226.65
61	24299	28	226.65
61	24652	28.5	226.65
61	26107	29	226.65
61	26474	29.5	229.95
61	27970	30	229.95
61	29226	30.5	229.95
61	29919	31	229.95
61	30624	31.5	229.95
61	31021	32	229.95
61	31757	32.5	229.95
61	32174	33	226.65
61	33820	33.5	226.65
61	34231	34	226.65
61	35560	34.5	226.65
61	35988	35	226.65
61	37732	35.5	226.65
61	38532	36	226.65
61	38985	36.5	226.65
61	40732	37	226.65
61	41551	37.5	226.65
61	43356	38	226.65
61	44191	38.5	226.65
61	45990	39	226.65
62	372	2.5	9.4304403306221
62	374	3	9.5756919116352
62	561	3.5	9.66038525952
62	562	4	9.631471209879
62	796	4.5	9.7876240282154
62	840	5	9.7053019083052
62	906	5.5	9.7067008003739
62	1495	6	8.6247571587079
62	1824	6.5	7.6888551991672
62	1891	7	6.7779469409275
62	1970	7.5	5.8296339436669
62	2373	8	5.1799910675329
62	2456	8.5	5.6232461887016
62	2558	9	6.1829908171254
62	3424	9.5	5.8042441892394
62	3537	10	4.6170240826203
62	4044	10.5	3.4543207647104
62	4172	11	4.3100418860531
62	4331	11.5	5.6100418860531
62	4903	12	6.4684213859235
62	5056	12.5	7.3434991210951
62	5671	13	8.3829958377751
62	5829	13.5	9.4018584162063
62	6489	14	9.9346463007224
62	7138	14.5	9.9739526380575
62	7326	15	9.8721545893699
62	8045	15.5	9.9961064582155
62	8247	16	9.8867566711549
62	8997	16.5	9.8744008317078
62	9193	17	9.9406049960386
62	9422	17.5	9.9769892491237
62	9639	18	9.9655994605925
62	10468	18.5	9.9717038306291
62	11503	19	9.482207400055
62	11946	19.5	8.2975597525571
62	12194	20	7.5651503160875
62	12691	20.5	7.4770077849274
62	13599	21	7.5972756260222
62	14110	21.5	6.7233129661874
62	15012	22	5.4734849151836
62	15301	22.5	4.1723700746318
62	16072	23	3.6937742923695
62	16627	23.5	4.9937742923695
62	17618	24	6.123601179049
62	18606	24.5	7.033713716169
62	19181	25	7.8816155701765
62	19511	25.5	8.9312098343723
62	20589	26	9.9012714666734
62	21477	26.5	9.9220544243953
62	22548	27	9.8894473284297
62	23184	27.5	9.9803068196611
62	24299	28	9.9163262779196
62	24652	28.5	9.9700479591987
62	26107	29	9.9843438088358
62	26474	29.5	9.9640166634903
62	27970	30	9.9007178811124
62	29226	30.5	9.9708239872893
62	29919	31	9.9059603897459
62	30624	31.5	9.1580615322067
62	31021	32	8.3840295325829
62	31757	32.5	8.24650992647
62	32174	33	8.2984247594855
62	33820	33.5	7.1799050973551
62	34231	34	5.772142123326
62	35560	34.5	4.5119480928664
62	35988	35	3.4426561464197
62	37732	35.5	4.7426561464197
62	38532	36	5.9477309590103
62	38985	36.5	6.9605411212789
62	40732	37	7.8490100603145
62	41551	37.5	8.837216526113
62	43356	38	9.78326105707
62	44191	38.5	9.9649001024244
62	45990	39	9.8921214059624
63	374	3	0.29050316202618
63	561	3.5	0.16938669576964
63	562	4	-0.057828099282002
63	796	4.5	0.31230563667272
63	840	5	-0.16464423982041
63	906	5.5	0.0027977841374742
63	1495	6	-2.163887283332
63	1824	6.5	-1.8718039190815
63	1891	7	-1.8218165164793
63	1970	7.5	-1.8966259945212
63	2373	8	-1.2992857522681
63	2456	8.5	0.88651024233751
63	2558	9	1.1194892568476
63	3424	9.5	-0.75749325577211
63	3537	10	-2.3744402132382
63	4044	10.5	-2.3254066358197
63	4172	11	1.7114422426853
63	4331	11.5	2.6
63	4903	12	1.7167589997407
63	5056	12.5	1.7501554703433
63	5671	13	2.07899343336
63	5829	13.5	2.0377251568623
63	6489	14	1.0655757690322
63	7138	14.5	0.078612674670293
63	7326	15	-0.20359609737526
63	8045	15.5	0.24790373769123
63	8247	16	-0.21869957412127
63	8997	16.5	-0.024711678894239
63	9193	17	0.1324083286617
63	9422	17.5	0.072768506170249
63	9639	18	-0.022779577062465
63	10468	18.5	0.012208740073255
63	11503	19	-0.97899286114825
63	11946	19.5	-2.3692952949958
63	12194	20	-1.4648188729392
63	12691	20.5	-0.17628506232033
63	13599	21	0.24053568218976
63	14110	21.5	-1.7479253196696
63	15012	22	-2.4996561020076
63	15301	22.5	-2.6022296811037
63	16072	23	-0.95719156452457
63	16627	23.5	2.6
63	17618	24	2.259653773359
63	18606	24.5	1.82022507424
63	19181	25	1.695803708015
63	19511	25.5	2.0991885283915
63	20589	26	1.9401232646022
63	21477	26.5	0.041565915443936
63	22548	27	-0.0652141919313
63	23184	27.5	0.18171898246277
63	24299	28	-0.12796108348295
63	24652	28.5	0.10744336255826
63	26107	29	0.028591699274259
63	26474	29.5	-0.04065429069102
63	27970	30	-0.12659756475594
63	29226	30.5	0.14021221235394
63	29919	31	-0.12972719508689
63	30624	31.5	-1.4957977150784
63	31021	32	-1.5480639992476
63	31757	32.5	-0.2750392122257
63	32174	33	0.10382966603092
63	33820	33.5	-2.2370393242609
63	34231	34	-2.8155259480581
63	35560	34.5	-2.5203880609192
63	35988	35	-2.1385838928935
63	37732	35.5	2.6
63	38532	36	2.4101496251812
63	38985	36.5	2.0256203245372
63	40732	37	1.7769378780713
63	41551	37.5	1.9764129315969
63	43356	38	1.892089061914
63	44191	38.5	0.36327809070891
63	45990	39	-0.14555739292409
64	374	3	2.3234492942732
64	561	3.5	2.0536580400078
64	562	4	1.5229298420356
64	796	4.5	2.4054442274092
64	840	5	1.2775345853762
64	906	5.5	1.6692827036269
64	1495	6	0.973
64	1824	6.5	0.973
64	1891	7	0.973
64	1970	7.5	0.973
64	2373	8	0.973
64	2456	8.5	2.5990922253897
64	2558	9	3.0982550688935
64	3424	9.5	0.973
64	3537	10	0.973
64	4044	10.5	0.973
64	4172	11	3.1030222137775
64	4331	11.5	4.9121913064493
64	4903	12	4.1232759077526
64	5056	12.5	4.5982295127769
64	5671	13	5.7690117961914
64	5829	13.5	6.2574948104204
64	6489	14	4.2310813657389
64	7138	14.5	1.8717654276986
64	7326	15	0.973
64	8045	15.5	2.2816985822007
64	8247	16	0.973
64	8997	16.5	1.6164755602091
64	9193	17	1.9974861225153
64	9422	17.5	1.8580011509579
64	9639	18	1.6274593829011
64	10468	18.5	1.7119717067025
64	11503	19	0.973
64	11946	19.5	0.973
64	12194	20	0.973
64	12691	20.5	0.973
64	13599	21	1.9574083188725
64	14110	21.5	0.973
64	15012	22	0.973
64	15301	22.5	0.973
64	16072	23	0.973
64	16627	23.5	4.4915029228563
64	17618	24	4.7613847567674
64	18606	24.5	4.5669613751843
64	19181	25	4.7565654573176
64	19511	25.5	6.1249920006483
64	20589	26	6.3068416069709
64	21477	26.5	1.7782684669968
64	22548	27	1.5209870578573
64	23184	27.5	2.1203644840713
64	24299	28	1.3726370742734
64	24652	28.5	1.9406693266384
64	26107	29	1.752388528577
64	26474	29.5	1.5844251106088
64	27970	30	1.3751942337738
64	29226	30.5	2.0194907526867
64	29919	31	1.3679581967532
64	30624	31.5	0.973
[...]
249	45990	39	4.8398973335487
250	29919	31	-0.18378174647798
250	30624	31.5	-0.23707051471206
250	31021	32	0.27578781386882
250	31757	32.5	-0.1814847057245
250	32174	33	-0.25765986377859
250	33820	33.5	-0.3844875953191
250	34231	34	0.19353458401555
250	35560	34.5	0.11100398676692
250	35988	35	-0.14933757188507
250	37732	35.5	-0.37715754630636
250	38532	36	-0.43649029735493
250	38985	36.5	0.14406106932919
250	40732	37	0.82202952528522
250	41551	37.5	-0.47225827544969
250	43356	38	-0.61750542474612
250	44191	38.5	-0.52791116062185
250	45990	39	0.60232203080983
251	29919	31	0.973
251	30624	31.5	0.973
251	31021	32	1.7692575538869
251	31757	32.5	0.973
251	32174	33	0.973
251	33820	33.5	0.973
251	34231	34	1.6256535815716
251	35560	34.5	1.5250230837209
251	35988	35	0.973
251	37732	35.5	0.973
251	38532	36	0.973
251	38985	36.5	1.5306439710835
251	40732	37	2.4414968389316
251	41551	37.5	0.973
251	43356	38	0.973
251	44191	38.5	0.973
251	45990	39	2.0565074960063
252	30624	31.5	41.723622833913
252	31021	32	41.723622833913
252	31757	32.5	43.32260214919
252	32174	33	45.291132356562
252	33820	33.5	47.755389133972
252	34231	34	50.721516112006
252	35560	34.5	54.241456984928
252	35988	35	58.296782048554
252	37732	35.5	62.849613560036
252	38532	36	67.765530014859
252	38985	36.5	72.648415240801
252	40732	37	77.610079392812
252	41551	37.5	82.575788038636
252	43356	38	87.52050835414
252	44191	38.5	92.479585564859
252	45990	39	97.200102322315
253	30624	31.5	233.25
253	31021	32	233.25
253	31757	32.5	233.25
253	32174	33	229.95
253	33820	33.5	229.95
253	34231	34	229.95
253	35560	34.5	229.95
253	35988	35	229.95
253	37732	35.5	229.95
253	38532	36	229.95
253	38985	36.5	229.95
253	40732	37	229.95
253	41551	37.5	229.95
253	43356	38	229.95
253	44191	38.5	229.95
253	45990	39	229.95
254	30650	31.5	1000
254	30730	31.6	1000
254	30809	31.7	1000
254	30888	31.8	1000
254	30967	31.9	1000
254	31047	32	1000
254	31138	32.1	1000
254	31217	32.2	1000
254	31296	32.3	1000
254	31376	32.4	1000
254	31783	32.5	1000
254	31867	32.6	1000
254	31950	32.7	1000
254	32033	32.8	1000
254	32116	32.9	1000
254	32200	33	1000
254	32284	33.1	1000
254	33261	33.2	1000
254	33343	33.3	1000
254	33425	33.4	1000
254	33846	33.5	1000
254	33928	33.6	1000
254	34010	33.7	1000
254	34092	33.8	1000
254	34174	33.9	1000
254	34257	34	1000
254	35244	34.1	1000
254	35330	34.2	1000
254	35415	34.3	1000
254	35500	34.4	1000
254	35586	34.5	1000
254	35671	34.6	1000
254	35756	34.7	1000
254	35842	34.8	1000
254	35927	34.9	1000
254	36014	35	1000
254	36127	35.1	1000
254	36216	35.2	1000
254	36305	35.3	1000
254	36394	35.4	1000
254	37758	35.5	1000
254	38204	35.6	1000
254	38292	35.7	1000
254	38380	35.8	1000
254	38469	35.9	1000
254	38558	36	1000
254	38658	36.1	1000
254	38746	36.2	1000
254	38834	36.3	1000
254	38922	36.4	1000
254	39011	36.5	1000
254	40049	36.6	1000
254	40140	36.7	1000
254	40231	36.8	1000
254	40322	36.9	1000
254	40758	37	1000
254	40861	37.1	1000
254	41302	37.2	1000
254	41393	37.3	1000
254	41485	37.4	1000
254	41577	37.5	1000
254	41673	37.6	1000
254	42145	37.7	1000
254	43192	37.8	1000
254	43286	37.9	1000
254	43382	38	1000
254	43478	38.1	1000
254	43934	38.2	1000
254	44028	38.3	1000
254	44122	38.4	1000
254	44217	38.5	1000
254	44311	38.6	1000
254	44782	38.7	1000
254	44876	38.8	1000
254	45922	38.9	1000
254	46016	39	1000
254	46114	39.1	1000
254	46211	39.2	1000
255	30677	31.5	1008
255	30756	31.6	1008
255	30835	31.7	1008
255	30914	31.8	1008
255	30993	31.9	1008
255	31073	32	1008
255	31164	32.1	1008
255	31243	32.2	1008
255	31322	32.3	1008
255	31402	32.4	1008
255	31810	32.5	1008
255	31894	32.6	1008
255	31977	32.7	1008
255	32060	32.8	1008
255	32143	32.9	1008
255	32227	33	1008
255	32311	33.1	1008
255	33288	33.2	1008
255	33370	33.3	1008
255	33452	33.4	1008
255	33873	33.5	1008
255	33955	33.6	1008
255	34037	33.7	1008
255	34119	33.8	1008
255	34201	33.9	1008
255	34285	34	1008
255	35272	34.1	1008
255	35358	34.2	1008
255	35443	34.3	1008
255	35528	34.4	1008
255	35614	34.5	1008
255	35699	34.6	1008
255	35784	34.7	1008
255	35870	34.8	1008
255	35955	34.9	1008
255	36044	35	1008
255	36156	35.1	1008
255	36245	35.2	1008
255	36334	35.3	1008
255	36423	35.4	1008
255	37787	35.5	1008
255	38233	35.6	1008
255	38321	35.7	1008
255	38409	35.8	1008
255	38498	35.9	1008
255	38587	36	1008
255	38687	36.1	1008
255	38775	36.2	1008
255	38863	36.3	1008
255	38951	36.4	1008
255	39041	36.5	1008
255	40079	36.6	1008
255	40170	36.7	1008
255	40261	36.8	1008
255	40352	36.9	1008
255	40788	37	1008
255	40891	37.1	1008
255	41332	37.2	1008
255	41423	37.3	1008
255	41515	37.4	1008
255	41608	37.5	1008
255	41704	37.6	1008
255	42176	37.7	1008
255	43223	37.8	1008
255	43317	37.9	1008
255	43413	38	1008
255	43509	38.1	1008
255	43965	38.2	1008
255	44059	38.3	1008
255	44153	38.4	1008
255	44248	38.5	1008
255	44342	38.6	1008
255	44813	38.7	1008
255	44907	38.8	1008
255	45953	38.9	1008
255	46048	39	1008
255	46146	39.1	1008
255	46243	39.2	1008
256	31021	32	3.5772632886651
256	31757	32.5	4.3405053911365
256	32174	33	5.3457570597327
256	33820	33.5	6.3779707093148
256	34231	34	7.3899949609658
256	35560	34.5	8.5275018438145
256	35988	35	9.4803083780764
256	37732	35.5	9.7157399138958
256	38532	36	9.8742257731315
256	38985	36.5	9.9335887770541
256	40732	37	9.8955444153841
256	41551	37.5	9.932978594813
256	43356	38	9.898126471194
256	44191	38.5	8.8896332850132
256	45990	39	7.2914400482182
257	31757	32.5	42.528257661286
257	32174	33	42.528257661286
257	33820	33.5	45.205124664499
257	34231	34	47.845699494089
257	35560	34.5	50.452047669818
257	35988	35	53.09938151769
257	37732	35.5	55.779457969433
257	38532	36	58.405784291911
257	38985	36.5	60.961685560613
257	40732	37	63.454434463211
257	41551	37.5	66.014634402886
257	43356	38	68.643747006146
257	44191	38.5	71.187663032383
257	45990	39	73.626849734105
258	31757	32.5	233.25
258	32174	33	233.25
258	33820	33.5	233.25
258	34231	34	233.25
258	35560	34.5	233.25
258	35988	35	233.25
258	37732	35.5	233.25
258	38532	36	233.25
258	38985	36.5	233.25
258	40732	37	233.25
258	41551	37.5	233.25
258	43356	38	233.25
258	44191	38.5	233.25
258	45990	39	233.25
259	31757	32.5	1.5264842049429
259	32174	33	2.0105033371923
259	33820	33.5	2.0644272991642
259	34231	34	2.024048503302
259	35560	34.5	2.2750137656974
259	35988	35	1.9056130685238
259	37732	35.5	0.4708630716387
259	38532	36	0.31697171847137
259	38985	36.5	0.11872600784525
259	40732	37	-0.076088723340071
259	41551	37.5	0.074868358857927
259	43356	38	-0.069704247238114
259	44191	38.5	-2.0169863723615
259	45990	39	-3.1963864735901
260	31757	32.5	2.923737082989
260	32174	33	3.9721783437507
260	33820	33.5	4.6148531698163
260	34231	34	5.1085835507617
260	35560	34.5	6.2540956887223
260	35988	35	5.9998996088495
260	37732	35.5	2.7659328365036
260	38532	36	2.4295634486735
260	38985	36.5	1.9639763569202
260	40732	37	1.4954168473727
260	41551	37.5	1.8589242387504
260	43356	38	1.5107939857995
260	44191	38.5	0.973
260	45990	39	0.973
261	31784	32.5	1000
261	31868	32.6	1000
261	31951	32.7	1000
261	32034	32.8	1000
261	32117	32.9	1000
261	32201	33	1000
261	32285	33.1	1000
261	33262	33.2	1000
261	33344	33.3	1000
261	33426	33.4	1000
261	33847	33.5	1000
261	33929	33.6	1000
261	34011	33.7	1000
261	34093	33.8	1000
261	34175	33.9	1000
261	34258	34	1000
261	35245	34.1	1000
261	35331	34.2	1000
261	35416	34.3	1000
261	35501	34.4	1000
261	35587	34.5	1000
261	35672	34.6	1000
261	35757	34.7	1000
261	35843	34.8	1000
261	35928	34.9	1000
261	36015	35	1000
261	36128	35.1	1000
261	36217	35.2	1000
261	36306	35.3	1000
261	36395	35.4	1000
261	37759	35.5	1000
261	38205	35.6	1000
261	38293	35.7	1000
261	38381	35.8	1000
261	38470	35.9	1000
261	38559	36	1000
261	38659	36.1	1000
261	38747	36.2	1000
261	38835	36.3	1000
261	38923	36.4	1000
261	39012	36.5	1000
261	40050	36.6	1000
261	40141	36.7	1000
261	40232	36.8	1000
261	40323	36.9	1000
261	40759	37	1000
261	40862	37.1	1000
261	41303	37.2	1000
261	41394	37.3	1000
261	41486	37.4	1000
261	41578	37.5	1000
261	41674	37.6	1000
261	42146	37.7	1000
261	43193	37.8	1000
261	43287	37.9	1000
261	43383	38	1000
261	43479	38.1	1000
261	43935	38.2	1000
261	44029	38.3	1000
261	44123	38.4	1000
261	44218	38.5	1000
261	44312	38.6	1000
261	44783	38.7	1000
261	44877	38.8	1000
261	45923	38.9	1000
261	46017	39	1000
261	46115	39.1	1000
261	46212	39.2	1000
262	31812	32.5	1008
262	31895	32.6	1008
262	31978	32.7	1008
262	32061	32.8	1008
262	32144	32.9	1008
262	32228	33	1008
262	32312	33.1	1008
262	33289	33.2	1008
262	33371	33.3	1008
262	33453	33.4	1008
262	33874	33.5	1008
262	33956	33.6	1008
262	34038	33.7	1008
262	34120	33.8	1008
262	34202	33.9	1008
262	34286	34	1008
262	35273	34.1	1008
262	35359	34.2	1008
262	35444	34.3	1008
262	35529	34.4	1008
262	35615	34.5	1008
262	35700	34.6	1008
262	35785	34.7	1008
262	35871	34.8	1008
262	35956	34.9	1008
262	36045	35	1008
262	36157	35.1	1008
262	36246	35.2	1008
262	36335	35.3	1008
262	36424	35.4	1008
262	37788	35.5	1008
262	38234	35.6	1008
262	38322	35.7	1008
262	38410	35.8	1008
262	38499	35.9	1008
262	38588	36	1008
262	38688	36.1	1008
262	38776	36.2	1008
262	38864	36.3	1008
262	38952	36.4	1008
262	39042	36.5	1008
262	40080	36.6	1008
262	40171	36.7	1008
262	40262	36.8	1008
262	40353	36.9	1008
262	40789	37	1008
262	40892	37.1	1008
262	41333	37.2	1008
262	41424	37.3	1008
262	41516	37.4	1008
262	41609	37.5	1008
262	41705	37.6	1008
262	42177	37.7	1008
262	43224	37.8	1008
262	43318	37.9	1008
262	43414	38	1008
262	43510	38.1	1008
262	43966	38.2	1008
262	44060	38.3	1008
262	44154	38.4	1008
262	44249	38.5	1008
262	44343	38.6	1008
262	44814	38.7	1008
262	44908	38.8	1008
262	45954	38.9	1008
262	46049	39	1008
262	46147	39.1	1008
262	46244	39.2	1008
263	32174	33	5.4219733953262
263	33820	33.5	5.1857215967887
263	34231	34	5.1508779466946
263	35560	34.5	5.298719476947
263	35988	35	5.3013109832456
263	37732	35.5	5.2302852373975
263	38532	36	5.048401867649
263	38985	36.5	5.0091673656033
263	40732	37	5.2064467981122
263	41551	37.5	5.1751267458033
263	43356	38	5.0304881014437
263	44191	38.5	4.7922519446862
263	45990	39	4.817895923288
264	33820	33.5	-0.47250359707502
264	34231	34	-0.06968730018802
264	35560	34.5	0.29568306050465
264	35988	35	0.0051830125972092
264	37732	35.5	-0.1420514916961
264	38532	36	-0.36376673949703
264	38985	36.5	-0.078469004091344
264	40732	37	0.39455886501766
264	41551	37.5	-0.062640104617834
264	43356	38	-0.28927728871913
264	44191	38.5	-0.47647231351505
264	45990	39	0.051287957203602
265	33820	33.5	0.973
265	34231	34	1.2845957810942
265	35560	34.5	1.7569380755183
265	35988	35	1.3861204401224
265	37732	35.5	0.973
265	38532	36	0.973
265	38985	36.5	1.2685247113082
265	40732	37	1.8692707610764
265	41551	37.5	1.2943267335104
265	43356	38	0.973
265	44191	38.5	0.973
265	45990	39	1.4122974701747
266	34231	34	41.961922401401
266	35560	34.5	41.961922401401
266	35988	35	43.529146892374
266	37732	35.5	45.468143128589
266	38532	36	47.825331544055
266	38985	36.5	50.640337029649
266	40732	37	53.977093141478
266	41551	37.5	57.818331678708
266	43356	38	62.208998269976
266	44191	38.5	67.077134732649
266	45990	39	72.0486283402
267	34231	34	233.25
267	35560	34.5	233.25
267	35988	35	233.25
267	37732	35.5	229.95
267	38532	36	229.95
267	38985	36.5	229.95
267	40732	37	229.95
267	41551	37.5	229.95
267	43356	38	229.95
267	44191	38.5	229.95
267	45990	39	229.95
268	34259	34	1000
268	35246	34.1	1000
268	35332	34.2	1000
268	35417	34.3	1000
268	35502	34.4	1000
268	35588	34.5	1000
268	35673	34.6	1000
268	35758	34.7	1000
268	35844	34.8	1000
268	35929	34.9	1000
268	36016	35	1000
268	36129	35.1	1000
268	36218	35.2	1000
268	36307	35.3	1000
268	36396	35.4	1000
268	37760	35.5	1000
268	38206	35.6	1000
268	38294	35.7	1000
268	38382	35.8	1000
268	38471	35.9	1000
268	38560	36	1000
268	38660	36.1	1000
268	38748	36.2	1000
268	38836	36.3	1000
268	38924	36.4	1000
268	39013	36.5	1000
268	40051	36.6	1000
268	40142	36.7	1000
268	40233	36.8	1000
268	40324	36.9	1000
268	40760	37	1000
268	40863	37.1	1000
268	41304	37.2	1000
268	41395	37.3	1000
268	41487	37.4	1000
268	41579	37.5	1000
268	41675	37.6	1000
268	42147	37.7	1000
268	43194	37.8	1000
268	43288	37.9	1000
268	43384	38	1000
268	43480	38.1	1000
268	43936	38.2	1000
268	44030	38.3	1000
268	44124	38.4	1000
268	44219	38.5	1000
268	44313	38.6	1000
268	44784	38.7	1000
268	44878	38.8	1000
268	45924	38.9	1000
268	46018	39	1000
268	46116	39.1	1000
268	46213	39.2	1000
269	34288	34	1008
269	35274	34.1	1008
269	35360	34.2	1008
269	35445	34.3	1008
269	35530	34.4	1008
269	35616	34.5	1008
269	35701	34.6	1008
269	35786	34.7	1008
269	35872	34.8	1008
269	35957	34.9	1008
269	36046	35	1008
269	36158	35.1	1008
269	36247	35.2	1008
269	36336	35.3	1008
269	36425	35.4	1008
269	37789	35.5	1008
269	38235	35.6	1008
269	38323	35.7	1008
269	38411	35.8	1008
269	38500	35.9	1008
269	38589	36	1008
269	38689	36.1	1008
269	38777	36.2	1008
269	38865	36.3	1008
269	38953	36.4	1008
269	39043	36.5	1008
269	40081	36.6	1008
269	40172	36.7	1008
269	40263	36.8	1008
269	40354	36.9	1008
269	40790	37	1008
269	40893	37.1	1008
269	41334	37.2	1008
269	41425	37.3	1008
269	41517	37.4	1008
269	41610	37.5	1008
269	41706	37.6	1008
269	42178	37.7	1008
269	43225	37.8	1008
269	43319	37.9	1008
269	43415	38	1008
269	43511	38.1	1008
269	43967	38.2	1008
269	44061	38.3	1008
269	44155	38.4	1008
269	44250	38.5	1008
269	44344	38.6	1008
269	44815	38.7	1008
269	44909	38.8	1008
269	45955	38.9	1008
269	46050	39	1008
269	46148	39.1	1008
269	46245	39.2	1008
270	35560	34.5	3.4409833476374
270	35988	35	4.1989697297831
270	37732	35.5	5.0791647903533
270	38532	36	6.0534828298288
270	38985	36.5	7.0545000349013
270	40732	37	8.1186525375867
270	41551	37.5	9.1899098912678
270	43356	38	9.9864744249335
270	44191	38.5	9.949041387788
270	45990	39	9.8770303689945
271	35988	35	43.027695856197
271	37732	35.5	43.027695856197
271	38532	36	45.630730006602
271	38985	36.5	48.205811420988
271	40732	37	50.720572530247
271	41551	37.5	53.259732807585
271	43356	38	55.863893561166
271	44191	38.5	58.417540684645
271	45990	39	60.923279596964
272	35988	35	233.25
272	37732	35.5	233.25
272	38532	36	233.25
272	38985	36.5	233.25
272	40732	37	233.25
272	41551	37.5	233.25
272	43356	38	233.25
272	44191	38.5	233.25
272	45990	39	233.25
273	35988	35	1.5159727642914
273	37732	35.5	1.7603901211405
273	38532	36	1.9486360789509
273	38985	36.5	2.0020344101451
273	40732	37	2.1283050053706
273	41551	37.5	2.1425147073623
273	43356	38	1.5931290673315
273	44191	38.5	-0.074866074291059
273	45990	39	-0.14402203758713
274	35988	35	2.8534886541624
274	37732	35.5	3.5219795625445
274	38532	36	4.2653566601072
274	38985	36.5	4.8864686962265
274	40732	37	5.7153091509223
274	41551	37.5	6.3701927772634
274	43356	38	5.5180000572368
274	44191	38.5	1.5014077642243
274	45990	39	1.3326557020758
275	36018	35	1000
275	36130	35.1	1000
275	36219	35.2	1000
275	36308	35.3	1000
275	36397	35.4	1000
275	37761	35.5	1000
275	38207	35.6	1000
275	38295	35.7	1000
275	38383	35.8	1000
275	38472	35.9	1000
275	38561	36	1000
275	38661	36.1	1000
275	38749	36.2	1000
275	38837	36.3	1000
275	38925	36.4	1000
275	39014	36.5	1000
275	40052	36.6	1000
275	40143	36.7	1000
275	40234	36.8	1000
275	40325	36.9	1000
275	40761	37	1000
275	40864	37.1	1000
275	41305	37.2	1000
275	41396	37.3	1000
275	41488	37.4	1000
275	41580	37.5	1000
275	41676	37.6	1000
275	42148	37.7	1000
275	43195	37.8	1000
275	43289	37.9	1000
275	43385	38	1000
275	43481	38.1	1000
275	43937	38.2	1000
275	44031	38.3	1000
275	44125	38.4	1000
275	44220	38.5	1000
275	44314	38.6	1000
275	44785	38.7	1000
275	44879	38.8	1000
275	45925	38.9	1000
275	46019	39	1000
275	46117	39.1	1000
275	46214	39.2	1000
276	36049	35	1008
276	36159	35.1	1008
276	36248	35.2	1008
276	36337	35.3	1008
276	36426	35.4	1008
276	37790	35.5	1008
276	38236	35.6	1008
276	38324	35.7	1008
276	38412	35.8	1008
276	38501	35.9	1008
276	38590	36	1008
276	38690	36.1	1008
276	38778	36.2	1008
276	38866	36.3	1008
276	38954	36.4	1008
276	39044	36.5	1008
276	40082	36.6	1008
276	40173	36.7	1008
276	40264	36.8	1008
276	40355	36.9	1008
276	40791	37	1008
276	40894	37.1	1008
276	41335	37.2	1008
276	41426	37.3	1008
276	41518	37.4	1008
276	41611	37.5	1008
276	41707	37.6	1008
276	42179	37.7	1008
276	43226	37.8	1008
276	43320	37.9	1008
276	43416	38	1008
276	43512	38.1	1008
276	43968	38.2	1008
276	44062	38.3	1008
276	44156	38.4	1008
276	44251	38.5	1008
276	44345	38.6	1008
276	44816	38.7	1008
276	44910	38.8	1008
276	45956	38.9	1008
276	46051	39	1008
276	46149	39.1	1008
276	46246	39.2	1008
277	37732	35.5	5.2710154697629
277	38532	36	5.0741345713436
277	38985	36.5	5.0169939737381
277	40732	37	5.1991248970319
277	41551	37.5	5.1821145748497
277	43356	38	5.031667713596
277	44191	38.5	4.9389001969659
277	45990	39	4.9847093770086
278	38532	36	-0.39376179683851
278	38985	36.5	-0.11428119521104
278	40732	37	0.36426184658765
278	41551	37.5	-0.034020644364563
278	43356	38	-0.3008937225073
278	44191	38.5	-0.18553503326014
278	45990	39	0.091618360085251
279	38532	36	0.973
279	38985	36.5	1.2255084069325
279	40732	37	1.8302045612584
279	41551	37.5	1.3303528184098
279	43356	38	0.973
279	44191	38.5	0.973
279	45990	39	1.4719666307649
280	38985	36.5	42.187150603982
280	40732	37	42.187150603982
280	41551	37.5	43.705161076605
280	43356	38	45.647639192281
280	44191	38.5	48.10634999698
280	45990	39	50.961687133529
281	38985	36.5	233.25
281	40732	37	233.25
281	41551	37.5	233.25
281	43356	38	229.95
281	44191	38.5	229.95
281	45990	39	229.95
282	39015	36.5	1000
282	40053	36.6	1000
282	40144	36.7	1000
282	40235	36.8	1000
282	40326	36.9	1000
282	40762	37	1000
282	40865	37.1	1000
282	41306	37.2	1000
282	41397	37.3	1000
282	41489	37.4	1000
282	41581	37.5	1000
282	41677	37.6	1000
282	42149	37.7	1000
282	43196	37.8	1000
282	43290	37.9	1000
282	43386	38	1000
282	43482	38.1	1000
282	43938	38.2	1000
282	44032	38.3	1000
282	44126	38.4	1000
282	44221	38.5	1000
282	44315	38.6	1000
282	44786	38.7	1000
282	44880	38.8	1000
282	45926	38.9	1000
282	46020	39	1000
282	46118	39.1	1000
282	46215	39.2	1000
283	39046	36.5	1008
283	40083	36.6	1008
283	40174	36.7	1008
283	40265	36.8	1008
283	40356	36.9	1008
283	40792	37	1008
283	40895	37.1	1008
283	41336	37.2	1008
283	41427	37.3	1008
283	41519	37.4	1008
283	41612	37.5	1008
283	41708	37.6	1008
283	42180	37.7	1008
283	43227	37.8	1008
283	43321	37.9	1008
283	43417	38	1008
283	43513	38.1	1008
283	43969	38.2	1008
283	44063	38.3	1008
283	44157	38.4	1008
283	44252	38.5	1008
283	44346	38.6	1008
283	44817	38.7	1008
283	44911	38.8	1008
283	45957	38.9	1008
283	46052	39	1008
283	46150	39.1	1008
283	46247	39.2	1008
284	40732	37	3.3002844088786
284	41551	37.5	4.3560464063501
284	43356	38	5.2749749219166
284	44191	38.5	6.0044185762322
284	45990	39	7.0664271084341
285	41551	37.5	43.433435815584
285	43356	38	43.433435815584
285	44191	38.5	45.928060940503
285	45990	39	48.395783485363
286	41551	37.5	233.25
286	43356	38	233.25
286	44191	38.5	233.25
286	45990	39	233.25
287	41551	37.5	2.1115239949431
287	43356	38	1.837857031133
287	44191	38.5	1.4588873086311
287	45990	39	2.1240170644037
288	41551	37.5	3.5444644609398
288	43356	38	3.7144345743086
288	44191	38.5	3.5307556900816
288	45990	39	5.100701081506
289	41582	37.5	1000
289	41678	37.6	1000
289	42150	37.7	1000
289	43197	37.8	1000
289	43291	37.9	1000
289	43387	38	1000
289	43483	38.1	1000
289	43939	38.2	1000
289	44033	38.3	1000
289	44127	38.4	1000
289	44222	38.5	1000
289	44316	38.6	1000
289	44787	38.7	1000
289	44881	38.8	1000
289	45927	38.9	1000
289	46021	39	1000
289	46119	39.1	1000
289	46216	39.2	1000
290	41614	37.5	1008
290	41709	37.6	1008
290	42181	37.7	1008
290	43228	37.8	1008
290	43322	37.9	1008
290	43418	38	1008
290	43514	38.1	1008
290	43970	38.2	1008
290	44064	38.3	1008
290	44158	38.4	1008
290	44253	38.5	1008
290	44347	38.6	1008
290	44818	38.7	1008
290	44912	38.8	1008
290	45958	38.9	1008
290	46053	39	1008
290	46151	39.1	1008
290	46248	39.2	1008
291	43356	38	4.9975266585782
291	44191	38.5	4.9237799085008
291	45990	39	4.8348063467941
292	44191	38.5	-0.14749350015496
292	45990	39	-0.17794712341339
293	44191	38.5	0.973
293	45990	39	0.973
294	45990	39	42.187079082621
295	45990	39	233.25
296	46022	39	1000
296	46120	39.1	1000
296	46217	39.2	1000
297	46055	39	1008
297	46152	39.1	1008
297	46249	39.2	1008

