version 2
run Lamda_2-0-20200724-15:56:55-13461
attr configname Lamda_2
attr datetime 20200724-15:56:55
attr experiment Lamda_2
attr inifile CNPOMNeTPP.ini
attr iterationvars ""
attr iterationvarsf ""
attr measurement ""
attr network CNPNet
attr processid 13461
attr repetition 0
attr replication #0
attr resultdir results
attr runnumber 0
attr seedset 0
param *.manager.launchConfig "xmldoc(\"CAN2Mapd3.launchd.xml\")"
param *.node[*].appl.lambda 2
param *.manager.seed 0
param *.n 3
param **.debug false
param **.coreDebug false
param *.playgroundSizeX 2500m
param *.playgroundSizeY 2500m
param *.playgroundSizeZ 50m
param *.annotations.draw true
param *.obstacles.debug false
param *.obstacles.obstacles "xmldoc(\"config.xml\", \"//AnalogueModel[@type='SimpleObstacleShadowing']/obstacles\")"
param *.manager.updateInterval 0.1s
param *.manager.host "\"localhost\""
param *.manager.port 9999
param *.manager.autoShutdown true
param *.rsu[0].mobility.x 50
param *.rsu[0].mobility.y 1025
param *.rsu[0].mobility.z 0
param *.rsu[1].mobility.x 50
param *.rsu[1].mobility.y 684
param *.rsu[1].mobility.z 0
param *.rsu[2].mobility.x 50
param *.rsu[2].mobility.y 340
param *.rsu[2].mobility.z 0
param *.rsu[0].mobility.x 325
param *.rsu[0].mobility.y 1025
param *.rsu[0].mobility.z 0
param *.rsu[*].applType "\"CNPTraCIDemoRSU11p\""
param **.rsu[*].app[*].typename "\"UdpBasicApp\""
param **.rsu[*].app[0].destPort 1000
param **.rsu[*].app[0].messageLength 1000B
param **.node[*].app[0].sendInterval 100ms
param **.rsu[*].app[0].sendInterval "uniform(5s, 10s)"
param **.rsu[*].app[0].sendInterval 100ms
param **.rsu[*].app[0].destAddresses "\"node[*]\""
param **.rsu[*].app[0].localAddress "\"\""
param **.rsu[*].app[0].localPort 1000
param **.*.app[0].localPort 1000
param **.rsu[*].app[0].replyDelay 0s
param **.eth[*].queue.typename "\"EtherQosQueue\""
param **.eth[*].queue.dataQueue.typename "\"DropTailQueue\""
param **.eth[*].queue.dataQueue.frameCapacity 10
param **.eth[*].mac.duplexMode true
param *.rsu[*].appl.headerLength "80 bit"
param *.rsu[*].appl.sendCCM true
param *.rsu[*].appl.dataOnSch true
param *.rsu[*].appl.CCMInterval 1s
param *.rsu[*].appl.CCMUserPriority 7
param *.rsu[*].appl.dataUserPriority 5
param *.connectionManager.sendDirect true
param *.connectionManager.maxInterfDist 700m
param *.connectionManager.drawMaxIntfDist true
param *.**.nic.mac1609_4.useServiceChannel true
param *.**.nic.mac1609_4.txPower 20mW
param *.**.nic.mac1609_4.bitrate 6Mbps
param *.**.nic.phy80211p.sensitivity -89dBm
param *.**.nic.phy80211p.useThermalNoise true
param *.**.nic.phy80211p.thermalNoise -110dBm
param *.**.nic.phy80211p.decider "xmldoc(\"config.xml\")"
param *.**.nic.phy80211p.analogueModels "xmldoc(\"config.xml\")"
param *.**.nic.phy80211p.usePropagationDelay true
param *.**.nic.phy80211p.maxt2cThresh 3.0
param *.**.nic.phy80211p.mint2cThresh 1.0
param *.**.nic.phy80211p.antenna "xmldoc(\"antenna.xml\", \"/root/Antenna[@id='monopole']\")"
param **.node[*].app[*].typename "\"UdpBasicApp\""
param **.node[*].app[0].destPort 1000
param **.node[*].app[0].messageLength 1000B
param **.node[*].app[0].sendInterval 100ms
param **.node[*].app[0].destAddresses "\"rsu[0]\""
param **.node[*].app[0].connectPort 1000
param **.node[0].app[0].startTime uniform(1700s,1700.5s)
param **.node[1].app[0].startTime uniform(1700.5s,1800s)
param **.node[2].app[0].startTime uniform(1800s,1800.5s)
param **.node[3].app[0].startTime uniform(1800.5s,1900s)
param **.node[*].app[0].sendInterval 200ms
param **.node[*].app[0].numCommands int(exponential(10))
param **.node[*].app[0].commandLength intWithUnit(exponential(10B))
param **.node[*].app[0].keyPressDelay exponential(0.1s)
param **.node[*].app[0].commandOutputLength intWithUnit(exponential(40B))
param **.node[*].app[0].thinkTime truncnormal(2s,3s)
param **.node[*].app[0].idleInterval truncnormal(3600s,1200s)
param **.node[*].app[0].reconnectInterval 30s
param *.node[*].applType "\"CNPTraCIDemo11p\""
param *.node[*].appl.headerLength "80 bit"
param *.node[*].appl.sendCCM true
param *.node[*].appl.dataOnSch true
param *.node[*].appl.CCMInterval 0.5s
param *.node[*].appl.maximumAcceleration 5.0
param *.node[*].appl.emergentManeuverTime 3.0
param *.node[*].appl.singleClusterFormationPeriod 12.0
param *.node[*3].appl.tesVeh false
param *.node[*].veinsmobilityType.debug true
param *.node[*].veinsmobility.x 0
param *.node[*].veinsmobility.y 0
param *.node[*].veinsmobility.z 1.895

vector 0 CNPNet.rsu[0].eth[0].queue.pauseQueue queueLength:vector ETV
attr interpolationmode sample-hold
attr title "queue length, vector"
vector 1 CNPNet.rsu[0].eth[0].queue.dataQueue queueLength:vector ETV
attr interpolationmode sample-hold
attr title "queue length, vector"
vector 2 CNPNet.rsu[0].eth[1].queue.pauseQueue queueLength:vector ETV
attr interpolationmode sample-hold
attr title "queue length, vector"
vector 3 CNPNet.rsu[0].eth[1].queue.dataQueue queueLength:vector ETV
attr interpolationmode sample-hold
attr title "queue length, vector"
vector 4 CNPNet.rsu[1].eth[0].queue.pauseQueue queueLength:vector ETV
attr interpolationmode sample-hold
attr title "queue length, vector"
vector 5 CNPNet.rsu[1].eth[0].queue.dataQueue queueLength:vector ETV
attr interpolationmode sample-hold
attr title "queue length, vector"
vector 6 CNPNet.rsu[1].eth[1].queue.pauseQueue queueLength:vector ETV
attr interpolationmode sample-hold
attr title "queue length, vector"
vector 7 CNPNet.rsu[1].eth[1].queue.dataQueue queueLength:vector ETV
attr interpolationmode sample-hold
attr title "queue length, vector"
vector 8 CNPNet.rsu[1].eth[2].queue.pauseQueue queueLength:vector ETV
attr interpolationmode sample-hold
attr title "queue length, vector"
vector 9 CNPNet.rsu[1].eth[2].queue.dataQueue queueLength:vector ETV
attr interpolationmode sample-hold
attr title "queue length, vector"
vector 10 CNPNet.rsu[2].eth[0].queue.pauseQueue queueLength:vector ETV
attr interpolationmode sample-hold
attr title "queue length, vector"
vector 11 CNPNet.rsu[2].eth[0].queue.dataQueue queueLength:vector ETV
attr interpolationmode sample-hold
attr title "queue length, vector"
vector 12 CNPNet.rsu[2].eth[1].queue.pauseQueue queueLength:vector ETV
attr interpolationmode sample-hold
attr title "queue length, vector"
vector 13 CNPNet.rsu[2].eth[1].queue.dataQueue queueLength:vector ETV
attr interpolationmode sample-hold
attr title "queue length, vector"
vector 14 CNPNet.MA[0].eth[0].queue.pauseQueue queueLength:vector ETV
attr interpolationmode sample-hold
attr title "queue length, vector"
vector 15 CNPNet.MA[0].eth[0].queue.dataQueue queueLength:vector ETV
attr interpolationmode sample-hold
attr title "queue length, vector"
vector 16 CNPNet.MA[0].eth[1].queue.pauseQueue queueLength:vector ETV
attr interpolationmode sample-hold
attr title "queue length, vector"
vector 17 CNPNet.MA[0].eth[1].queue.dataQueue queueLength:vector ETV
attr interpolationmode sample-hold
attr title "queue length, vector"
vector 18 CNPNet.MA[0].eth[2].queue.pauseQueue queueLength:vector ETV
attr interpolationmode sample-hold
attr title "queue length, vector"
vector 19 CNPNet.MA[0].eth[2].queue.dataQueue queueLength:vector ETV
attr interpolationmode sample-hold
attr title "queue length, vector"
vector 20 CNPNet.node[0].veinsmobility posx ETV
vector 21 CNPNet.node[0].veinsmobility posy ETV
vector 22 CNPNet.node[0].veinsmobility speed ETV
vector 23 CNPNet.node[0].veinsmobility acceleration ETV
vector 24 CNPNet.node[0].veinsmobility co2emission ETV
vector 25 CNPNet.rsu[2].eth[0].encap encapPk:vector(packetBytes) ETV
attr interpolationmode none
attr source encapPk
attr title "packets encapsulated, vector(packetBytes)"
vector 26 CNPNet.rsu[2].eth[0].queue.dataQueue packetReceived:vector(packetBytes) ETV
attr interpolationmode none
attr title "received packets, vector(packetBytes)"
vector 27 CNPNet.rsu[2].eth[0].queue.dataQueue queueingTime:vector ETV
attr interpolationmode none
attr title "queueing time, vector"
vector 28 CNPNet.rsu[2].eth[0].mac packetReceivedFromUpper:vector(packetBytes) ETV
attr interpolationmode none
attr source packetReceivedFromUpper
attr title "packet bytes from higher layer, vector(packetBytes)"
vector 29 CNPNet.rsu[2].eth[0].mac txPk:vector(packetBytes) ETV
attr interpolationmode none
attr source packetSentToLower
attr title "packets transmitted, vector(packetBytes)"
vector 30 CNPNet.MA[0].eth[2].mac rxPkOk:vector(packetBytes) ETV
attr interpolationmode none
attr source rxPkOk
attr title "packets received OK, vector(packetBytes)"
vector 31 CNPNet.MA[0].eth[2].mac passedUpPk:vector(packetBytes) ETV
attr interpolationmode none
attr source packetSentToUpper
attr title "packets passed to higher layer, vector(packetBytes)"
vector 32 CNPNet.MA[0].eth[2].encap decapPk:vector(packetBytes) ETV
attr interpolationmode none
attr source decapPk
attr title "packets decapsulated, vector(packetBytes)"
vector 33 CNPNet.node[1].veinsmobility posx ETV
vector 34 CNPNet.node[1].veinsmobility posy ETV
vector 35 CNPNet.node[1].veinsmobility speed ETV
vector 36 CNPNet.node[1].veinsmobility acceleration ETV
vector 37 CNPNet.node[1].veinsmobility co2emission ETV
vector 38 CNPNet.node[2].veinsmobility posx ETV
vector 39 CNPNet.node[2].veinsmobility posy ETV
vector 40 CNPNet.node[2].veinsmobility speed ETV
vector 41 CNPNet.node[2].veinsmobility acceleration ETV
vector 42 CNPNet.node[2].veinsmobility co2emission ETV
vector 43 CNPNet.rsu[0].app[0] packetSent:vector(packetBytes) ETV
attr interpolationmode none
attr source packetSent
attr title "packets sent, vector(packetBytes)"
vector 44 CNPNet.rsu[0].udp packetSent:vector(packetBytes) ETV
attr interpolationmode none
attr source packetSent
attr title "packets sent, vector(packetBytes)"
vector 45 CNPNet.rsu[0].eth[0].encap encapPk:vector(packetBytes) ETV
attr interpolationmode none
attr source encapPk
attr title "packets encapsulated, vector(packetBytes)"
vector 46 CNPNet.rsu[0].eth[0].queue.dataQueue packetReceived:vector(packetBytes) ETV
attr interpolationmode none
attr title "received packets, vector(packetBytes)"
vector 47 CNPNet.rsu[0].eth[0].queue.dataQueue queueingTime:vector ETV
attr interpolationmode none
attr title "queueing time, vector"
vector 48 CNPNet.rsu[0].eth[0].mac packetReceivedFromUpper:vector(packetBytes) ETV
attr interpolationmode none
attr source packetReceivedFromUpper
attr title "packet bytes from higher layer, vector(packetBytes)"
vector 49 CNPNet.rsu[0].eth[0].mac txPk:vector(packetBytes) ETV
attr interpolationmode none
attr source packetSentToLower
attr title "packets transmitted, vector(packetBytes)"
vector 50 CNPNet.MA[0].eth[0].mac rxPkOk:vector(packetBytes) ETV
attr interpolationmode none
attr source rxPkOk
attr title "packets received OK, vector(packetBytes)"
vector 51 CNPNet.MA[0].eth[0].mac passedUpPk:vector(packetBytes) ETV
attr interpolationmode none
attr source packetSentToUpper
attr title "packets passed to higher layer, vector(packetBytes)"
vector 52 CNPNet.MA[0].eth[0].encap decapPk:vector(packetBytes) ETV
attr interpolationmode none
attr source decapPk
attr title "packets decapsulated, vector(packetBytes)"
vector 53 CNPNet.rsu[1].app[0] packetSent:vector(packetBytes) ETV
attr interpolationmode none
attr source packetSent
attr title "packets sent, vector(packetBytes)"
vector 54 CNPNet.rsu[1].udp packetSent:vector(packetBytes) ETV
attr interpolationmode none
attr source packetSent
attr title "packets sent, vector(packetBytes)"
vector 55 CNPNet.rsu[1].eth[0].encap encapPk:vector(packetBytes) ETV
attr interpolationmode none
attr source encapPk
attr title "packets encapsulated, vector(packetBytes)"
vector 56 CNPNet.rsu[1].eth[0].queue.dataQueue packetReceived:vector(packetBytes) ETV
attr interpolationmode none
attr title "received packets, vector(packetBytes)"
vector 57 CNPNet.rsu[1].eth[0].queue.dataQueue queueingTime:vector ETV
attr interpolationmode none
attr title "queueing time, vector"
vector 58 CNPNet.rsu[1].eth[0].mac packetReceivedFromUpper:vector(packetBytes) ETV
attr interpolationmode none
attr source packetReceivedFromUpper
attr title "packet bytes from higher layer, vector(packetBytes)"
vector 59 CNPNet.rsu[1].eth[0].mac txPk:vector(packetBytes) ETV
attr interpolationmode none
attr source packetSentToLower
attr title "packets transmitted, vector(packetBytes)"
vector 60 CNPNet.MA[0].eth[1].mac rxPkOk:vector(packetBytes) ETV
attr interpolationmode none
attr source rxPkOk
attr title "packets received OK, vector(packetBytes)"
vector 61 CNPNet.MA[0].eth[1].mac passedUpPk:vector(packetBytes) ETV
attr interpolationmode none
attr source packetSentToUpper
attr title "packets passed to higher layer, vector(packetBytes)"
vector 62 CNPNet.MA[0].eth[1].encap decapPk:vector(packetBytes) ETV
attr interpolationmode none
attr source decapPk
attr title "packets decapsulated, vector(packetBytes)"
vector 63 CNPNet.rsu[2].app[0] packetSent:vector(packetBytes) ETV
attr interpolationmode none
attr source packetSent
attr title "packets sent, vector(packetBytes)"
vector 64 CNPNet.rsu[2].udp packetSent:vector(packetBytes) ETV
attr interpolationmode none
attr source packetSent
attr title "packets sent, vector(packetBytes)"
vector 65 CNPNet.node[0].udp packetReceived:vector(packetBytes) ETV
attr interpolationmode none
attr source packetReceived
attr title "packets received, vector(packetBytes)"
vector 66 CNPNet.node[0].udp droppedPkWrongPort:vector(count) ETV
attr interpolationmode none
attr source packetDropReasonIsNoPortFound(packetDropped)
attr title "packets dropped (wrong port), vector(count)"
vector 67 CNPNet.node[3].veinsmobility posx ETV
vector 68 CNPNet.node[3].veinsmobility posy ETV
vector 69 CNPNet.node[3].veinsmobility speed ETV
vector 70 CNPNet.node[3].veinsmobility acceleration ETV
vector 71 CNPNet.node[3].veinsmobility co2emission ETV
vector 72 CNPNet.node[4].veinsmobility posx ETV
vector 73 CNPNet.node[4].veinsmobility posy ETV
vector 74 CNPNet.node[4].app[0] packetSent:vector(packetBytes) ETV
attr interpolationmode none
attr source packetSent
attr title "packets sent, vector(packetBytes)"
vector 75 CNPNet.node[4].udp packetSent:vector(packetBytes) ETV
attr interpolationmode none
attr source packetSent
attr title "packets sent, vector(packetBytes)"
vector 76 CNPNet.node[4].veinsmobility speed ETV
vector 77 CNPNet.node[4].veinsmobility acceleration ETV
vector 78 CNPNet.node[4].veinsmobility co2emission ETV
vector 79 CNPNet.node[5].veinsmobility posx ETV
vector 80 CNPNet.node[5].veinsmobility posy ETV
vector 81 CNPNet.node[5].app[0] packetSent:vector(packetBytes) ETV
attr interpolationmode none
attr source packetSent
attr title "packets sent, vector(packetBytes)"
vector 82 CNPNet.node[5].udp packetSent:vector(packetBytes) ETV
attr interpolationmode none
attr source packetSent
attr title "packets sent, vector(packetBytes)"
vector 83 CNPNet.node[5].veinsmobility speed ETV
vector 84 CNPNet.node[5].veinsmobility acceleration ETV
vector 85 CNPNet.node[5].veinsmobility co2emission ETV
vector 86 CNPNet.node[6].veinsmobility posx ETV
vector 87 CNPNet.node[6].veinsmobility posy ETV
vector 88 CNPNet.node[6].app[0] packetSent:vector(packetBytes) ETV
attr interpolationmode none
attr source packetSent
attr title "packets sent, vector(packetBytes)"
vector 89 CNPNet.node[6].udp packetSent:vector(packetBytes) ETV
attr interpolationmode none
attr source packetSent
attr title "packets sent, vector(packetBytes)"
vector 90 CNPNet.node[6].veinsmobility speed ETV
vector 91 CNPNet.node[6].veinsmobility acceleration ETV
vector 92 CNPNet.node[6].veinsmobility co2emission ETV
vector 93 CNPNet.node[7].veinsmobility posx ETV
vector 94 CNPNet.node[7].veinsmobility posy ETV
vector 95 CNPNet.node[7].app[0] packetSent:vector(packetBytes) ETV
attr interpolationmode none
attr source packetSent
attr title "packets sent, vector(packetBytes)"
vector 96 CNPNet.node[7].udp packetSent:vector(packetBytes) ETV
attr interpolationmode none
attr source packetSent
attr title "packets sent, vector(packetBytes)"
vector 97 CNPNet.node[7].veinsmobility speed ETV
vector 98 CNPNet.node[7].veinsmobility acceleration ETV
vector 99 CNPNet.node[7].veinsmobility co2emission ETV
vector 100 CNPNet.node[8].veinsmobility posx ETV
vector 101 CNPNet.node[8].veinsmobility posy ETV
vector 102 CNPNet.node[8].app[0] packetSent:vector(packetBytes) ETV
attr interpolationmode none
attr source packetSent
attr title "packets sent, vector(packetBytes)"
vector 103 CNPNet.node[8].udp packetSent:vector(packetBytes) ETV
attr interpolationmode none
attr source packetSent
attr title "packets sent, vector(packetBytes)"
vector 104 CNPNet.node[8].veinsmobility speed ETV
vector 105 CNPNet.node[8].veinsmobility acceleration ETV
vector 106 CNPNet.node[8].veinsmobility co2emission ETV
vector 107 CNPNet.node[9].veinsmobility posx ETV
vector 108 CNPNet.node[9].veinsmobility posy ETV
vector 109 CNPNet.node[9].app[0] packetSent:vector(packetBytes) ETV
attr interpolationmode none
attr source packetSent
attr title "packets sent, vector(packetBytes)"
vector 110 CNPNet.node[9].udp packetSent:vector(packetBytes) ETV
attr interpolationmode none
attr source packetSent
attr title "packets sent, vector(packetBytes)"
vector 111 CNPNet.node[9].veinsmobility speed ETV
vector 112 CNPNet.node[9].veinsmobility acceleration ETV
vector 113 CNPNet.node[9].veinsmobility co2emission ETV
vector 114 CNPNet.node[10].veinsmobility posx ETV
vector 115 CNPNet.node[10].veinsmobility posy ETV
vector 116 CNPNet.node[10].app[0] packetSent:vector(packetBytes) ETV
attr interpolationmode none
attr source packetSent
attr title "packets sent, vector(packetBytes)"
vector 117 CNPNet.node[10].udp packetSent:vector(packetBytes) ETV
attr interpolationmode none
attr source packetSent
attr title "packets sent, vector(packetBytes)"
vector 118 CNPNet.node[10].veinsmobility speed ETV
vector 119 CNPNet.node[10].veinsmobility acceleration ETV
vector 120 CNPNet.node[10].veinsmobility co2emission ETV
vector 121 CNPNet.node[11].veinsmobility posx ETV
vector 122 CNPNet.node[11].veinsmobility posy ETV
vector 123 CNPNet.node[11].app[0] packetSent:vector(packetBytes) ETV
attr interpolationmode none
attr source packetSent
attr title "packets sent, vector(packetBytes)"
vector 124 CNPNet.node[11].udp packetSent:vector(packetBytes) ETV
attr interpolationmode none
attr source packetSent
attr title "packets sent, vector(packetBytes)"
vector 125 CNPNet.node[11].veinsmobility speed ETV
vector 126 CNPNet.node[11].veinsmobility acceleration ETV
vector 127 CNPNet.node[11].veinsmobility co2emission ETV
vector 128 CNPNet.node[12].veinsmobility posx ETV
vector 129 CNPNet.node[12].veinsmobility posy ETV
vector 130 CNPNet.node[12].app[0] packetSent:vector(packetBytes) ETV
attr interpolationmode none
attr source packetSent
attr title "packets sent, vector(packetBytes)"
vector 131 CNPNet.node[12].udp packetSent:vector(packetBytes) ETV
attr interpolationmode none
attr source packetSent
attr title "packets sent, vector(packetBytes)"
vector 132 CNPNet.node[12].veinsmobility speed ETV
vector 133 CNPNet.node[12].veinsmobility acceleration ETV
vector 134 CNPNet.node[12].veinsmobility co2emission ETV
vector 135 CNPNet.node[13].veinsmobility posx ETV
vector 136 CNPNet.node[13].veinsmobility posy ETV
vector 137 CNPNet.node[13].app[0] packetSent:vector(packetBytes) ETV
attr interpolationmode none
attr source packetSent
attr title "packets sent, vector(packetBytes)"
vector 138 CNPNet.node[13].udp packetSent:vector(packetBytes) ETV
attr interpolationmode none
attr source packetSent
attr title "packets sent, vector(packetBytes)"
vector 139 CNPNet.node[13].veinsmobility speed ETV
vector 140 CNPNet.node[13].veinsmobility acceleration ETV
vector 141 CNPNet.node[13].veinsmobility co2emission ETV
vector 142 CNPNet.node[14].veinsmobility posx ETV
vector 143 CNPNet.node[14].veinsmobility posy ETV
vector 144 CNPNet.node[14].app[0] packetSent:vector(packetBytes) ETV
attr interpolationmode none
attr source packetSent
attr title "packets sent, vector(packetBytes)"
vector 145 CNPNet.node[14].udp packetSent:vector(packetBytes) ETV
attr interpolationmode none
attr source packetSent
attr title "packets sent, vector(packetBytes)"
vector 146 CNPNet.node[14].veinsmobility speed ETV
vector 147 CNPNet.node[14].veinsmobility acceleration ETV
vector 148 CNPNet.node[14].veinsmobility co2emission ETV
vector 149 CNPNet.node[15].veinsmobility posx ETV
vector 150 CNPNet.node[15].veinsmobility posy ETV
vector 151 CNPNet.node[15].app[0] packetSent:vector(packetBytes) ETV
attr interpolationmode none
attr source packetSent
attr title "packets sent, vector(packetBytes)"
vector 152 CNPNet.node[15].udp packetSent:vector(packetBytes) ETV
attr interpolationmode none
attr source packetSent
attr title "packets sent, vector(packetBytes)"
vector 153 CNPNet.node[15].veinsmobility speed ETV
vector 154 CNPNet.node[15].veinsmobility acceleration ETV
vector 155 CNPNet.node[15].veinsmobility co2emission ETV
vector 156 CNPNet.node[16].veinsmobility posx ETV
vector 157 CNPNet.node[16].veinsmobility posy ETV
vector 158 CNPNet.node[16].app[0] packetSent:vector(packetBytes) ETV
attr interpolationmode none
attr source packetSent
attr title "packets sent, vector(packetBytes)"
vector 159 CNPNet.node[16].udp packetSent:vector(packetBytes) ETV
attr interpolationmode none
attr source packetSent
attr title "packets sent, vector(packetBytes)"
vector 160 CNPNet.node[16].veinsmobility speed ETV
vector 161 CNPNet.node[16].veinsmobility acceleration ETV
vector 162 CNPNet.node[16].veinsmobility co2emission ETV
vector 163 CNPNet.node[17].veinsmobility posx ETV
vector 164 CNPNet.node[17].veinsmobility posy ETV
vector 165 CNPNet.node[17].app[0] packetSent:vector(packetBytes) ETV
attr interpolationmode none
attr source packetSent
attr title "packets sent, vector(packetBytes)"
vector 166 CNPNet.node[17].udp packetSent:vector(packetBytes) ETV
attr interpolationmode none
attr source packetSent
attr title "packets sent, vector(packetBytes)"
vector 167 CNPNet.node[17].veinsmobility speed ETV
vector 168 CNPNet.node[17].veinsmobility acceleration ETV
vector 169 CNPNet.node[17].veinsmobility co2emission ETV
vector 170 CNPNet.node[18].veinsmobility posx ETV
vector 171 CNPNet.node[18].veinsmobility posy ETV
vector 172 CNPNet.node[18].app[0] packetSent:vector(packetBytes) ETV
attr interpolationmode none
attr source packetSent
attr title "packets sent, vector(packetBytes)"
vector 173 CNPNet.node[18].udp packetSent:vector(packetBytes) ETV
attr interpolationmode none
attr source packetSent
attr title "packets sent, vector(packetBytes)"
vector 174 CNPNet.node[18].veinsmobility speed ETV
vector 175 CNPNet.node[18].veinsmobility acceleration ETV
vector 176 CNPNet.node[18].veinsmobility co2emission ETV
vector 177 CNPNet.node[19].veinsmobility posx ETV
vector 178 CNPNet.node[19].veinsmobility posy ETV
vector 179 CNPNet.node[19].app[0] packetSent:vector(packetBytes) ETV
attr interpolationmode none
attr source packetSent
attr title "packets sent, vector(packetBytes)"
vector 180 CNPNet.node[19].udp packetSent:vector(packetBytes) ETV
attr interpolationmode none
attr source packetSent
attr title "packets sent, vector(packetBytes)"
vector 181 CNPNet.node[19].veinsmobility speed ETV
vector 182 CNPNet.node[19].veinsmobility acceleration ETV
vector 183 CNPNet.node[19].veinsmobility co2emission ETV
vector 184 CNPNet.node[20].veinsmobility posx ETV
vector 185 CNPNet.node[20].veinsmobility posy ETV
vector 186 CNPNet.node[20].app[0] packetSent:vector(packetBytes) ETV
attr interpolationmode none
attr source packetSent
attr title "packets sent, vector(packetBytes)"
vector 187 CNPNet.node[20].udp packetSent:vector(packetBytes) ETV
attr interpolationmode none
attr source packetSent
attr title "packets sent, vector(packetBytes)"
vector 188 CNPNet.node[20].veinsmobility speed ETV
vector 189 CNPNet.node[20].veinsmobility acceleration ETV
vector 190 CNPNet.node[20].veinsmobility co2emission ETV
vector 191 CNPNet.node[21].veinsmobility posx ETV
vector 192 CNPNet.node[21].veinsmobility posy ETV
vector 193 CNPNet.node[21].app[0] packetSent:vector(packetBytes) ETV
attr interpolationmode none
attr source packetSent
attr title "packets sent, vector(packetBytes)"
vector 194 CNPNet.node[21].udp packetSent:vector(packetBytes) ETV
attr interpolationmode none
attr source packetSent
attr title "packets sent, vector(packetBytes)"
vector 195 CNPNet.node[21].veinsmobility speed ETV
vector 196 CNPNet.node[21].veinsmobility acceleration ETV
vector 197 CNPNet.node[21].veinsmobility co2emission ETV
0	0	0	0
1	0	0	0
1	1084	7.744067511521	1
1	1084	7.744067511521	0
1	1447	8.744067511521	1
1	1447	8.744067511521	0
1	1601	9.744067511521	1
1	1601	9.744067511521	0
1	3026	15.292189370375	1
1	3026	15.292189370375	0
1	3284	16.292189370375	1
1	3284	16.292189370375	0
1	3533	17.292189370375	1
1	3533	17.292189370375	0
1	5382	21.628502040403	1
1	5382	21.628502040403	0
1	5808	22.628502040403	1
1	5808	22.628502040403	0
1	6150	23.628502040403	1
1	6150	23.628502040403	0
1	7885	27.043360763928	1
1	7885	27.043360763928	0
1	8646	28.043360763928	1
1	8646	28.043360763928	0
1	9192	29.043360763928	1
1	9192	29.043360763928	0
1	11432	32.917220800882	1
1	11432	32.917220800882	0
1	12012	33.917220800882	1
1	12012	33.917220800882	0
1	12547	34.917220800882	1
1	12547	34.917220800882	0
1	17451	41.055894573219	1
1	17451	41.055894573219	0
1	18812	42.055894573219	1
1	18812	42.055894573219	0
1	19668	43.055894573219	1
1	19668	43.055894573219	0
1	26208	48.931589293061	1
1	26208	48.931589293061	0
1	27468	49.931589293061	1
1	27468	49.931589293061	0
1	28241	50.931589293061	1
1	28241	50.931589293061	0
1	36360	56.72682334669	1
1	36360	56.72682334669	0
1	37311	57.72682334669	1
1	37311	57.72682334669	0
1	39449	58.72682334669	1
1	39449	58.72682334669	0
1	48515	64.851868606639	1
1	48515	64.851868606639	0
1	51380	65.851868606639	1
1	51380	65.851868606639	0
1	52356	66.851868606639	1
1	52356	66.851868606639	0
1	59569	71.287880885648	1
1	59569	71.287880885648	0
2	0	0	0
3	0	0	0
4	0	0	0
5	0	0	0
5	1132	7.964223081945	1
5	1132	7.964223081945	0
5	1491	8.964223081945	1
5	1491	8.964223081945	0
5	1645	9.964223081945	1
5	1645	9.964223081945	0
5	2346	13.242796546547	1
5	2346	13.242796546547	0
5	2561	14.242796546547	1
5	2561	14.242796546547	0
5	3003	15.242796546547	1
5	3003	15.242796546547	0
5	4937	21.114422825631	1
5	4937	21.114422825631	0
5	5646	22.114422825631	1
5	5646	22.114422825631	0
5	5970	23.114422825631	1
5	5970	23.114422825631	0
5	7681	26.562437991379	1
5	7681	26.562437991379	0
5	8446	27.562437991379	1
5	8446	27.562437991379	0
5	8992	28.562437991379	1
5	8992	28.562437991379	0
5	11012	32.016866640188	1
5	11012	32.016866640188	0
5	11489	33.016866640188	1
5	11489	33.016866640188	0
5	12075	34.016866640188	1
5	12075	34.016866640188	0
5	16324	39.476327800658	1
5	16324	39.476327800658	0
5	17069	40.476327800658	1
5	17069	40.476327800658	0
5	18123	41.476327800658	1
5	18123	41.476327800658	0
5	22107	45.326002733782	1
5	22107	45.326002733782	0
5	22934	46.326002733782	1
5	22934	46.326002733782	0
5	23985	47.326002733782	1
5	23985	47.326002733782	0
5	31422	52.985298188869	1
5	31422	52.985298188869	0
5	32320	53.985298188869	1
5	32320	53.985298188869	0
5	33952	54.985298188869	1
5	33952	54.985298188869	0
5	38804	58.496210724115	1
5	38804	58.496210724115	0
5	40782	59.496210724115	1
5	40782	59.496210724115	0
5	41883	60.496210724115	1
5	41883	60.496210724115	0
5	52371	66.864171059569	1
5	52371	66.864171059569	0
5	54223	67.864171059569	1
5	54223	67.864171059569	0
5	56419	68.864171059569	1
5	56419	68.864171059569	0
6	0	0	0
7	0	0	0
8	0	0	0
9	0	0	0
10	0	0	0
11	0	0	0
11	158	1.005160603747	1
11	158	1.005160603747	0
11	652	4.628937014035	1
11	652	4.628937014035	0
11	1358	8.606912065767	1
11	1358	8.606912065767	0
11	2002	11.510692952348	1
11	2002	11.510692952348	0
11	2827	14.805272932249	1
11	2827	14.805272932249	0
11	3862	17.923279523169	1
11	3862	17.923279523169	0
11	5203	21.416640119565	1
11	5203	21.416640119565	0
11	6736	24.705222317239	1
11	6736	24.705222317239	0
11	8292	27.505380989896	1
11	8292	27.505380989896	0
11	10095	30.618011503735	1
11	10095	30.618011503735	0
11	12962	35.005144310321	1
11	12962	35.005144310321	0
11	14961	37.840856910312	1
11	14961	37.840856910312	0
11	17746	41.105289314788	1
11	17746	41.105289314788	0
11	20866	44.221303856093	1
11	20866	44.221303856093	0
11	25553	48.531689618055	1
11	25553	48.531689618055	0
11	28815	51.209596372996	1
11	28815	51.209596372996	0
11	33055	54.405216857035	1
11	33055	54.405216857035	0
11	38308	58.34729257028	1
11	38308	58.34729257028	0
11	43267	61.404914201692	1
11	43267	61.404914201692	0
11	49288	65.105371781186	1
11	49288	65.105371781186	0
11	53874	67.805234532803	1
11	53874	67.805234532803	0
12	0	0	0
13	0	0	0
14	0	0	0
15	0	0	0
16	0	0	0
17	0	0	0
18	0	0	0
19	0	0	0
20	6	0.1	20.05
20	15	0.2	20.05
20	26	0.3	20.05
20	35	0.4	20.05
20	44	0.5	20.05
20	54	0.6	20.05
20	63	0.7	20.05
20	72	0.8	20.05
20	81	0.9	20.05
20	93	1	20.05
20	214	1.1	20.05
20	223	1.2	20.05
20	232	1.3	20.05
20	241	1.4	20.05
20	250	1.5	20.05
20	259	1.6	20.05
20	268	1.7	20.05
20	277	1.8	20.05
20	286	1.9	20.05
20	308	2	20.05
20	317	2.1	20.05
20	326	2.2	20.05
20	335	2.3	20.05
20	344	2.4	20.05
20	353	2.5	20.05
20	362	2.6	20.05
20	371	2.7	20.05
20	380	2.8	20.05
20	389	2.9	20.05
20	398	3	20.05
20	407	3.1	20.05
20	416	3.2	20.05
20	425	3.3	20.05
20	434	3.4	20.05
20	444	3.5	20.05
20	455	3.6	20.05
20	466	3.7	20.05
20	477	3.8	20.05
20	489	3.9	20.05
20	500	4	20.05
20	511	4.1	20.05
20	522	4.2	20.05
20	533	4.3	20.05
20	544	4.4	20.05
20	555	4.5	20.05
20	566	4.6	20.05
20	719	4.7	20.05
20	730	4.8	20.05
20	741	4.9	20.05
20	752	5	20.05
20	763	5.1	20.05
20	774	5.2	20.05
20	785	5.3	20.05
20	796	5.4	20.05
20	807	5.5	20.05
20	818	5.6	20.05
20	829	5.7	20.05
20	840	5.8	20.05
20	851	5.9	20.05
20	862	6	20.05
20	873	6.1	20.05
20	884	6.2	20.05
20	895	6.3	20.05
20	906	6.4	20.05
20	917	6.5	20.05
20	928	6.6	20.05
20	939	6.7	20.05
20	951	6.8	20.05
20	964	6.9	20.05
20	977	7	20.05
20	990	7.1	20.05
20	1003	7.2	20.05
20	1016	7.3	20.05
20	1029	7.4	20.05
20	1042	7.5	20.05
20	1055	7.6	20.05
20	1069	7.7	20.05
20	1098	7.8	20.05
20	1111	7.9	20.05
20	1140	8	20.05
20	1153	8.1	20.05
20	1166	8.2	20.05
20	1179	8.3	20.05
20	1192	8.4	20.05
20	1205	8.5	20.05
20	1226	8.6	20.05
20	1436	8.7	20.05
20	1461	8.8	20.05
20	1474	8.9	20.05
20	1499	9	20.05
20	1512	9.1	20.05
20	1525	9.2	20.05
20	1538	9.3	20.05
20	1551	9.4	20.05
20	1564	9.5	20.05
20	1577	9.6	20.05
20	1590	9.7	20.05
20	1615	9.8	20.05
20	1628	9.9	20.05
20	1653	10	20.05
20	1667	10.1	20.05
20	1682	10.2	20.05
20	1697	10.3	20.05
20	1712	10.4	20.05
20	1727	10.5	20.05
20	1742	10.6	20.05
20	1757	10.7	20.05
20	1773	10.8	20.05
20	1788	10.9	20.05
20	1805	11	20.05
20	1820	11.1	20.05
20	1835	11.2	20.05
20	1850	11.3	20.05
20	1865	11.4	20.05
20	1880	11.5	20.05
20	2091	11.6	20.05
20	2106	11.7	20.05
20	2121	11.8	20.05
20	2136	11.9	20.05
20	2151	12	20.05
20	2166	12.1	20.05
20	2181	12.2	20.05
20	2196	12.3	20.05
20	2211	12.4	20.05
20	2226	12.5	20.05
20	2241	12.6	20.05
20	2256	12.7	20.05
20	2271	12.8	20.05
20	2286	12.9	20.05
20	2301	13	20.05
20	2316	13.1	20.05
20	2331	13.2	20.05
20	2361	13.3	20.05
20	2376	13.4	20.05
20	2397	13.5	20.05
20	2418	13.6	20.05
20	2439	13.7	20.05
20	2460	13.8	20.05
20	2481	13.9	20.05
20	2502	14	20.05
20	2523	14.1	20.05
20	2544	14.2	20.05
20	2577	14.3	20.05
20	2599	14.4	20.05
20	2620	14.5	20.05
20	2641	14.6	20.05
20	2662	14.7	20.05
20	2686	14.8	20.05
20	2927	14.9	20.05
20	2947	15	20.05
20	2967	15.1	20.05
20	2987	15.2	20.05
20	3034	15.3	20.05
20	3054	15.4	20.05
20	3074	15.5	20.05
20	3094	15.6	20.05
20	3114	15.7	20.05
20	3134	15.8	20.05
20	3199	15.9	20.05
20	3219	16	20.05
20	3239	16.1	20.05
20	3259	16.2	20.05
20	3292	16.3	20.05
20	3312	16.4	20.05
20	3332	16.5	20.05
20	3352	16.6	20.05
20	3372	16.7	20.05
20	3398	16.8	20.05
20	3424	16.9	20.05
20	3450	17	20.05
20	3476	17.1	20.05
20	3502	17.2	20.05
20	3541	17.3	20.05
20	3567	17.4	20.05
20	3593	17.5	20.05
20	3619	17.6	20.05
20	3645	17.7	20.05
20	3671	17.8	20.05
20	3697	17.9	20.05
20	3973	18	20.05
20	4090	18.1	20.05
20	4115	18.2	20.05
20	4141	18.3	20.05
20	4166	18.4	20.05
20	4191	18.5	20.05
20	4216	18.6	20.05
20	4241	18.7	20.05
20	4266	18.8	20.05
20	4291	18.9	20.05
20	4316	19	20.05
20	4341	19.1	20.05
20	4366	19.2	20.05
20	4391	19.3	20.05
20	4416	19.4	20.05
20	4441	19.5	20.05
20	4466	19.6	20.05
20	4491	19.7	20.05
20	4516	19.8	20.05
20	4541	19.9	20.05
20	4566	20	20.05
20	4598	20.1	20.05
20	4629	20.2	20.05
20	4660	20.3	20.05
20	4691	20.4	20.05
20	4722	20.5	20.05
20	4753	20.6	20.05
20	4785	20.7	20.05
20	4816	20.8	20.05
20	4847	20.9	20.05
20	4878	21	20.05
20	4909	21.1	20.05
20	4955	21.2	20.05
20	4986	21.3	20.05
20	5017	21.4	20.05
20	5325	21.5	20.05
20	5355	21.6	20.05
20	5502	21.7	20.05
20	5532	21.8	20.05
20	5562	21.9	20.05
20	5592	22	20.05
20	5622	22.1	20.05
20	5664	22.2	20.05
20	5694	22.3	20.05
20	5724	22.4	20.05
20	5754	22.5	20.05
20	5784	22.6	20.05
20	5826	22.7	20.05
20	5856	22.8	20.05
20	5886	22.9	20.05
20	5916	23	20.05
20	5946	23.1	20.05
20	5988	23.2	20.05
20	6018	23.3	20.05
20	6049	23.4	20.05
20	6085	23.5	20.05
20	6121	23.6	20.05
20	6169	23.7	20.05
20	6205	23.8	20.05
20	6241	23.9	20.05
20	6277	24	20.05
20	6314	24.1	20.05
20	6351	24.2	20.05
20	6387	24.3	20.05
20	6423	24.4	20.05
20	6459	24.5	20.05
20	6495	24.6	20.05
20	6535	24.7	20.05
20	6872	24.8	20.05
20	6907	24.9	20.05
20	6942	25	20.05
20	6977	25.1	20.05
20	7012	25.2	20.05
20	7047	25.3	20.05
20	7082	25.4	20.05
20	7117	25.5	20.05
20	7152	25.6	20.05
20	7303	25.7	20.05
20	7394	25.8	20.05
20	7429	25.9	20.05
20	7464	26	20.05
20	7499	26.1	20.05
20	7534	26.2	20.05
20	7569	26.3	20.05
20	7604	26.4	20.05
20	7639	26.5	20.05
20	7689	26.6	20.05
20	7726	26.7	20.05
20	7767	26.8	20.05
20	7808	26.9	20.05
20	7849	27	20.05
20	7905	27.1	20.05
20	7947	27.2	20.05
20	7988	27.3	20.05
20	8029	27.4	20.05
20	8073	27.5	20.05
20	8454	27.6	20.05
20	8494	27.7	20.05
20	8534	27.8	20.05
20	8574	27.9	20.05
20	8614	28	20.05
20	8666	28.1	20.05
20	8706	28.2	20.05
20	8746	28.3	20.05
20	8786	28.4	20.05
20	8826	28.5	20.05
20	9000	28.6	20.05
20	9040	28.7	20.05
20	9080	28.8	20.05
20	9120	28.9	20.05
20	9160	29	20.05
20	9212	29.1	20.05
20	9252	29.2	20.05
20	9292	29.3	20.05
20	9332	29.4	20.05
20	9372	29.5	20.05
20	9413	29.6	20.05
20	9453	29.7	20.05
20	9493	29.8	20.05
20	9533	29.9	20.05
20	9574	30	20.05
20	9621	30.1	20.05
20	9667	30.2	20.05
20	9713	30.3	20.05
20	9759	30.4	20.05
20	9806	30.5	20.05
20	9852	30.6	20.05
20	10256	30.7	20.05
20	10301	30.8	20.05
20	10346	30.9	20.05
20	10391	31	20.05
20	10436	31.1	20.05
20	10481	31.2	20.05
20	10526	31.3	20.05
20	10571	31.4	20.05
20	10616	31.5	20.05
20	10661	31.6	20.05
20	10706	31.7	20.05
20	10751	31.8	20.05
20	10928	31.9	20.05
20	10973	32	20.05
20	11033	32.1	20.05
20	11078	32.2	20.05
20	11123	32.3	20.05
20	11168	32.4	20.05
20	11213	32.5	20.05
20	11258	32.6	20.05
20	11303	32.7	20.05
20	11348	32.8	20.05
20	11393	32.9	20.05
20	11453	33	20.05
20	11510	33.1	20.05
20	11555	33.2	20.05
20	11600	33.3	20.05
20	11716	33.4	20.05
20	11767	33.5	20.05
20	11818	33.6	20.05
20	11869	33.7	20.05
20	11920	33.8	20.05
20	11971	33.9	20.05
20	12034	34	20.05
20	12097	34.1	20.05
20	12148	34.2	20.05
20	12200	34.3	20.05
20	12251	34.4	20.05
20	12302	34.5	20.05
20	12353	34.6	20.05
20	12404	34.7	20.05
20	12455	34.8	20.05
20	12506	34.9	20.05
20	12714	35	20.05
20	13128	35.1	20.05
20	13178	35.2	20.05
20	13228	35.3	20.05
20	13278	35.4	20.05
20	13328	35.5	20.05
20	13378	35.6	20.05
20	13428	35.7	20.05
20	13478	35.8	20.05
20	13528	35.9	20.05
20	13579	36	20.05
20	13771	36.1	20.05
20	13821	36.2	20.05
20	13871	36.3	20.05
20	13921	36.4	20.05
20	13971	36.5	20.05
20	14021	36.6	20.05
20	14072	36.7	20.05
20	14128	36.8	20.05
20	14184	36.9	20.05
20	14240	37	20.05
20	14296	37.1	20.05
20	14352	37.2	20.05
20	14409	37.3	20.05
20	14465	37.4	20.05
20	14521	37.5	20.05
20	14577	37.6	20.05
20	14633	37.7	20.05
20	14689	37.8	20.05
20	15137	37.9	20.05
20	15192	38	20.05
20	15247	38.1	20.05
20	15302	38.2	20.05
20	15357	38.3	20.05
20	15412	38.4	20.05
20	15619	38.5	20.05
20	15674	38.6	20.05
20	15729	38.7	20.05
20	15784	38.8	20.05
20	15839	38.9	20.05
20	15894	39	20.05
20	16097	39.1	20.05
20	16152	39.2	20.05
20	16207	39.3	20.05
20	16262	39.4	20.05
20	16332	39.5	20.05
20	16387	39.6	20.05
20	16594	39.7	20.05
20	16649	39.8	20.05
20	16704	39.9	20.05
20	16760	40	20.05
20	16821	40.1	20.05
20	16882	40.2	20.05
20	16943	40.3	20.05
20	17004	40.4	20.05
20	17077	40.5	20.05
20	17138	40.6	20.05
20	17199	40.7	20.05
20	17261	40.8	20.05
20	17322	40.9	20.05
20	17383	41	20.05
20	17462	41.1	20.05
20	17939	41.2	20.05
20	17999	41.3	20.05
20	18059	41.4	20.05
20	18131	41.5	20.05
20	18191	41.6	20.05
20	18251	41.7	20.05
20	18473	41.8	20.05
20	18533	41.9	20.05
20	18593	42	20.05
20	18820	42.1	20.05
20	18880	42.2	20.05
20	18940	42.3	20.05
20	19000	42.4	20.05
20	19061	42.5	20.05
20	19121	42.6	20.05
20	19339	42.7	20.05
20	19399	42.8	20.05
20	19544	42.9	20.05
20	19604	43	20.05
20	19676	43.1	20.05
20	19736	43.2	20.05
20	19796	43.3	20.05
20	19857	43.4	20.05
20	19923	43.5	20.05
20	19989	43.6	20.05
20	20231	43.7	20.05
20	20297	43.8	20.05
20	20363	43.9	20.05
20	20429	44	20.05
20	20497	44.1	20.05
20	20563	44.2	20.05
20	21065	44.3	20.05
20	21130	44.4	20.05
20	21195	44.5	20.05
20	21432	44.6	20.05
20	21497	44.7	20.05
20	21562	44.8	20.05
20	21627	44.9	20.05
20	21692	45	20.05
20	21922	45.1	20.05
20	21987	45.2	20.05
20	22052	45.3	20.05
20	22132	45.4	20.05
20	22197	45.5	20.05
20	22262	45.6	20.05
20	22492	45.7	20.05
20	22557	45.8	20.05
20	22622	45.9	20.05
20	22687	46	20.05
20	22752	46.1	20.05
20	22817	46.2	20.05
20	22882	46.3	20.05
20	22959	46.4	20.05
20	23024	46.5	20.05
20	23261	46.6	20.05
20	23502	46.7	20.05
20	23573	46.8	20.05
20	23644	46.9	20.05
20	23715	47	20.05
20	23786	47.1	20.05
20	23857	47.2	20.05
20	23928	47.3	20.05
20	24011	47.4	20.05
20	24082	47.5	20.05
20	24153	47.6	20.05
20	24404	47.7	20.05
20	24475	47.8	20.05
20	24641	47.9	20.05
20	24712	48	20.05
20	24955	48.1	20.05
20	25026	48.2	20.05
20	25097	48.3	20.05
20	25169	48.4	20.05
20	25240	48.5	20.05
20	25764	48.6	20.05
20	26009	48.7	20.05
20	26079	48.8	20.05
20	26149	48.9	20.05
20	26234	49	20.05
20	26304	49.1	20.05
20	26374	49.2	20.05
20	26444	49.3	20.05
20	26514	49.4	20.05
20	26584	49.5	20.05
20	26832	49.6	20.05
20	27087	49.7	20.05
20	27157	49.8	20.05
20	27412	49.9	20.05
20	27495	50	20.05
20	27571	50.1	20.05
20	27647	50.2	20.05
20	27723	50.3	20.05
20	27799	50.4	20.05
20	27875	50.5	20.05
20	27951	50.6	20.05
20	28028	50.7	20.05
20	28104	50.8	20.05
20	28180	50.9	20.05
20	28268	51	20.05
20	28414	51.1	20.05
20	28490	51.2	20.05
20	29029	51.3	20.05
20	29104	51.4	20.05
20	29179	51.5	20.05
20	29254	51.6	20.05
20	29508	51.7	20.05
20	29583	51.8	20.05
20	29658	51.9	20.05
20	29734	52	20.05
20	29992	52.1	20.05
20	30067	52.2	20.05
20	30142	52.3	20.05
20	30217	52.4	20.05
20	30292	52.5	20.05
20	30549	52.6	20.05
20	30813	52.7	20.05
20	30888	52.8	20.05
20	31151	52.9	20.05
20	31430	53	20.05
20	31506	53.1	20.05
20	31581	53.2	20.05
20	31656	53.3	20.05
20	31732	53.4	20.05
20	31813	53.5	20.05
20	31894	53.6	20.05
20	31975	53.7	20.05
20	32153	53.8	20.05
20	32234	53.9	20.05
20	32328	54	20.05
20	32479	54.1	20.05
20	32560	54.2	20.05
20	32641	54.3	20.05
20	32725	54.4	20.05
20	33280	54.5	20.05
20	33360	54.6	20.05
20	33518	54.7	20.05
20	33598	54.8	20.05
20	33868	54.9	20.05
20	33960	55	20.05
20	34040	55.1	20.05
20	34120	55.2	20.05
20	34200	55.3	20.05
20	34280	55.4	20.05
20	34360	55.5	20.05
20	34629	55.6	20.05
20	34902	55.7	20.05
20	34982	55.8	20.05
20	35254	55.9	20.05
20	35527	56	20.05
20	35607	56.1	20.05
20	35687	56.2	20.05
20	35767	56.3	20.05
20	35847	56.4	20.05
20	36126	56.5	20.05
20	36206	56.6	20.05
20	36288	56.7	20.05
20	36389	56.8	20.05
20	36475	56.9	20.05
20	36561	57	20.05
20	36647	57.1	20.05
20	36733	57.2	20.05
20	36819	57.3	20.05
20	36905	57.4	20.05
20	36991	57.5	20.05
20	37077	57.6	20.05
20	37242	57.7	20.05
20	37340	57.8	20.05
20	37426	57.9	20.05
20	37512	58	20.05
20	37598	58.1	20.05
20	37881	58.2	20.05
20	37967	58.3	20.05
20	38356	58.4	20.05
20	38812	58.5	20.05
20	39093	58.6	20.05
20	39381	58.7	20.05
20	39478	58.8	20.05
20	39766	58.9	20.05
20	40148	59	20.05
20	40233	59.1	20.05
20	40318	59.2	20.05
20	40403	59.3	20.05
20	40488	59.4	20.05
20	40790	59.5	20.05
20	40875	59.6	20.05
20	40960	59.7	20.05
20	41252	59.8	20.05
20	41337	59.9	20.05
20	41423	60	20.05
20	41514	60.1	20.05
20	41605	60.2	20.05
20	41696	60.3	20.05
20	41787	60.4	20.05
20	41891	60.5	20.05
20	41982	60.6	20.05
20	42074	60.7	20.05
20	42165	60.8	20.05
20	42256	60.9	20.05
20	42347	61	20.05
20	42438	61.1	20.05
20	42529	61.2	20.05
20	42824	61.3	20.05
20	42918	61.4	20.05
20	43505	61.5	20.05
20	43683	61.6	20.05
20	43980	61.7	20.05
20	44070	61.8	20.05
20	44363	61.9	20.05
20	44656	62	20.05
20	44746	62.1	20.05
20	44836	62.2	20.05
20	44926	62.3	20.05
20	45016	62.4	20.05
20	45315	62.5	20.05
20	45618	62.6	20.05
20	45708	62.7	20.05
20	46007	62.8	20.05
20	46097	62.9	20.05
20	46187	63	20.05
20	46277	63.1	20.05
20	46367	63.2	20.05
20	46457	63.3	20.05
20	46548	63.4	20.05
20	46644	63.5	20.05
20	46741	63.6	20.05
20	46837	63.7	20.05
20	46933	63.8	20.05
20	47029	63.9	20.05
20	47125	64	20.05
20	47221	64.1	20.05
20	47317	64.2	20.05
20	47413	64.3	20.05
20	47510	64.4	20.05
20	47606	64.5	20.05
20	47790	64.6	20.05
20	48103	64.7	20.05
20	48199	64.8	20.05
20	48523	64.9	20.05
20	48832	65	20.05
20	48931	65.1	20.05
20	49523	65.2	20.05
20	49618	65.3	20.05
20	49717	65.4	20.05
20	50133	65.5	20.05
20	50655	65.6	20.05
20	50970	65.7	20.05
20	51281	65.8	20.05
20	51388	65.9	20.05
20	51483	66	20.05
20	51578	66.1	20.05
20	51673	66.2	20.05
20	51768	66.3	20.05
20	51863	66.4	20.05
20	51958	66.5	20.05
20	52053	66.6	20.05
20	52149	66.7	20.05
20	52250	66.8	20.05
20	52379	66.9	20.05
20	52480	67	20.05
20	52581	67.1	20.05
20	52682	67.2	20.05
20	52783	67.3	20.05
20	52885	67.4	20.05
20	52986	67.5	20.05
20	53087	67.6	20.05
20	53406	67.7	20.05
20	53510	67.8	20.05
20	54231	67.9	20.05
20	54429	68	20.05
20	54529	68.1	20.05
20	54629	68.2	20.05
20	54941	68.3	20.05
20	55041	68.4	20.05
20	55358	68.5	20.05
20	55678	68.6	20.05
20	55998	68.7	20.05
20	56315	68.8	20.05
20	56427	68.9	20.05
20	56527	69	20.05
20	56627	69.1	20.05
20	56727	69.2	20.05
20	56827	69.3	20.05
20	56927	69.4	20.05
20	57027	69.5	20.05
20	57127	69.6	20.05
20	57227	69.7	20.05
20	57327	69.8	20.05
20	57428	69.9	20.05
20	57530	70	20.05
20	57867	70.1	20.05
20	57973	70.2	20.05
20	58079	70.3	20.05
20	58185	70.4	20.05
20	58291	70.5	20.05
20	58397	70.6	20.05
20	58728	70.7	20.05
20	58834	70.8	20.05
20	59038	70.9	20.05
20	59243	71	20.05
20	59350	71.1	20.05
20	59456	71.2	20.05
20	59577	71.3	20.05
20	59683	71.4	20.05
20	60230	71.5	20.05
20	60566	71.6	20.05
21	6	0.1	39.95
21	15	0.2	39.95
21	26	0.3	39.998627966244
21	35	0.4	40.094332379548
21	44	0.5	40.23482648051
21	54	0.6	40.417279199278
21	63	0.7	40.642726218834
21	72	0.8	40.906357310195
21	81	0.9	41.211443786276
21	93	1	41.55148788067
21	214	1.1	41.933269772487
21	223	1.2	42.351589488679
21	232	1.3	42.804784957437
21	241	1.4	43.298370883489
21	250	1.5	43.831017129293
21	259	1.6	44.406225009965
21	268	1.7	45.009138565593
21	277	1.8	45.660634296828
21	286	1.9	46.338038458961
21	308	2	47.058626213731
21	317	2.1	47.819627930469
21	326	2.2	48.618688019415
21	335	2.3	49.447954982525
21	344	2.4	50.306917727474
21	353	2.5	51.202658099385
21	362	2.6	52.13639904201
21	371	2.7	53.105938870541
21	380	2.8	54.115659079244
21	389	2.9	55.152239372116
21	398	3	56.217917695767
21	407	3.1	57.33182011795
21	416	3.2	58.487287636092
21	425	3.3	59.690576921811
21	434	3.4	60.927661910615
21	444	3.5	62.214241439441
21	455	3.6	63.541614929834
21	466	3.7	64.895059541368
21	477	3.8	66.281550771932
21	489	3.9	67.649798590656
21	500	4	69.027958389655
21	511	4.1	70.397935620843
21	522	4.2	71.774923683831
21	533	4.3	73.147951695489
21	544	4.4	74.519935879199
21	555	4.5	75.895385384418
21	566	4.6	77.271951053713
21	719	4.7	78.642985663202
21	730	4.8	80.030337973041
21	741	4.9	81.408497962473
21	752	5	82.793839653859
21	763	5.1	84.165416699411
21	774	5.2	85.550002940493
21	785	5.3	86.936622486162
21	796	5.4	88.318518961059
21	807	5.5	89.704777089464
21	818	5.6	91.089219054826
21	829	5.7	92.469556830375
21	840	5.8	93.83699186859
21	851	5.9	95.215743118851
21	862	6	96.590416532305
21	873	6.1	97.95785781785
21	884	6.2	99.345375809061
21	895	6.3	100.71113058235
21	906	6.4	102.08480208154
21	917	6.5	103.47052934189
21	928	6.6	104.85157553763
21	939	6.7	106.22280838416
21	951	6.8	107.59761261749
21	964	6.9	108.97948643681
21	977	7	110.35852139897
21	990	7.1	111.72454766724
21	1003	7.2	113.10932574827
21	1016	7.3	114.47444325913
21	1029	7.4	115.8581109691
21	1042	7.5	117.23624353147
21	1055	7.6	118.62226929181
21	1069	7.7	119.99540048375
21	1098	7.8	121.38194591002
21	1111	7.9	122.74820663373
21	1140	8	124.11768180296
21	1153	8.1	125.49211065063
21	1166	8.2	126.8797081906
21	1179	8.3	128.24775335389
21	1192	8.4	129.61333432662
21	1205	8.5	130.99205534627
21	1226	8.6	132.38107565154
21	1436	8.7	133.74658598328
21	1461	8.8	135.1291824783
21	1474	8.9	136.50196594864
21	1499	9	137.88160937393
21	1512	9.1	139.2661888206
21	1525	9.2	140.64202378439
21	1538	9.3	142.01929956037
21	1551	9.4	143.40695104772
21	1564	9.5	144.79487323555
21	1577	9.6	146.17690901168
21	1590	9.7	147.5458504597
21	1615	9.8	148.91794227975
21	1628	9.9	150.30132402565
21	1653	10	151.67666120232
21	1667	10.1	153.06253769081
21	1682	10.2	154.45242030375
21	1697	10.3	155.83567010454
21	1712	10.4	157.20161539092
21	1727	10.5	158.57721145752
21	1742	10.6	159.95290515998
21	1757	10.7	161.31908643475
21	1773	10.8	162.6879262181
21	1788	10.9	164.07049029431
21	1805	11	165.45057765083
21	1820	11.1	166.82604582894
21	1835	11.2	168.19873253915
21	1850	11.3	169.57619942957
21	1865	11.4	170.95009967466
21	1880	11.5	172.32493984424
21	2091	11.6	173.70740047383
21	2106	11.7	175.09014853358
21	2121	11.8	176.46942931612
21	2136	11.9	177.85197225792
21	2151	12	179.22720043885
21	2166	12.1	180.60087041846
21	2181	12.2	181.9800849576
21	2196	12.3	183.36089591081
21	2211	12.4	184.72859782685
21	2226	12.5	186.10100061222
21	2241	12.6	187.46801354689
21	2256	12.7	188.83304237182
21	2271	12.8	190.20133922031
21	2286	12.9	191.57595023112
21	2301	13	192.94475002544
21	2316	13.1	194.32052250683
21	2331	13.2	195.70879333207
21	2361	13.3	197.08745476507
21	2376	13.4	198.45579520692
21	2397	13.5	199.82440012334
21	2418	13.6	201.20540067186
21	2439	13.7	202.58691557646
21	2460	13.8	203.97191566333
21	2481	13.9	205.35032938892
21	2502	14	206.71712735661
21	2523	14.1	208.08753625041
21	2544	14.2	209.46310553577
21	2577	14.3	210.84642397242
21	2599	14.4	212.22167622298
21	2620	14.5	213.59782016208
21	2641	14.6	214.98316533694
21	2662	14.7	216.36186261099
21	2686	14.8	217.74550369892
21	2927	14.9	219.12330775627
21	2947	15	220.50386396034
21	2967	15.1	221.87249862076
21	2987	15.2	223.25115619978
21	3034	15.3	224.62328877645
21	3054	15.4	225.99671182137
21	3074	15.5	227.38098133829
21	3094	15.6	228.76139474101
21	3114	15.7	230.1384019612
21	3134	15.8	231.52156341037
21	3199	15.9	232.894566424
21	3219	16	234.27917873206
21	3239	16.1	235.64717129194
21	3259	16.2	237.02421627416
21	3292	16.3	238.41037391657
21	3312	16.4	239.788784531
21	3332	16.5	241.15859502438
21	3352	16.6	242.5356605466
21	3372	16.7	243.90804869006
21	3398	16.8	245.29346669407
21	3424	16.9	246.68034586755
21	3450	17	248.0516710116
21	3476	17.1	249.42293965119
21	3502	17.2	250.80771072549
21	3541	17.3	252.19613476817
21	3567	17.4	253.56530881581
21	3593	17.5	254.95076803567
21	3619	17.6	256.32107948183
21	3645	17.7	257.6997002614
21	3671	17.8	259.07181123259
21	3697	17.9	260.44935772688
21	3973	18	261.82002457651
21	4090	18.1	263.19051391028
21	4115	18.2	264.58041270764
21	4141	18.3	265.95970711197
21	4166	18.4	267.34669068705
21	4191	18.5	268.72246041814
21	4216	18.6	270.10217610776
21	4241	18.7	271.4846303359
21	4266	18.8	272.86649757817
21	4291	18.9	274.24316093627
21	4316	19	275.62689536827
21	4341	19.1	277.00609166708
21	4366	19.2	278.38661582277
21	4391	19.3	279.76181744367
21	4416	19.4	281.14035457983
21	4441	19.5	282.50903870674
21	4466	19.6	283.88630515509
21	4491	19.7	285.27114028995
21	4516	19.8	286.65668110611
21	4541	19.9	288.02437986457
21	4566	20	289.39125077882
21	4598	20.1	290.76951332119
21	4629	20.2	292.14914913424
21	4660	20.3	293.52838907325
21	4691	20.4	294.90215249746
21	4722	20.5	296.26824235428
21	4753	20.6	297.65593585003
21	4785	20.7	299.02783165913
21	4816	20.8	300.4060011424
21	4847	20.9	301.78009961598
21	4878	21	303.1623924619
21	4909	21.1	304.53094939582
21	4955	21.2	305.89937383039
21	4986	21.3	307.28538846879
21	5017	21.4	308.65196980686
21	5325	21.5	310.0411371912
21	5355	21.6	311.42134283313
21	5502	21.7	312.7881105478
21	5532	21.8	314.17580985821
21	5562	21.9	315.55044824054
21	5592	22	316.92420244119
21	5622	22.1	318.30787266141
21	5664	22.2	319.67333166941
21	5694	22.3	321.05310531705
21	5724	22.4	322.42710471317
21	5754	22.5	323.8098947506
21	5784	22.6	325.18404647678
21	5826	22.7	326.5601792815
21	5856	22.8	327.93900068553
21	5886	22.9	329.32785050275
21	5916	23	330.71141966567
21	5946	23.1	332.09400575902
21	5988	23.2	333.47176802597
21	6018	23.3	334.86030911717
21	6049	23.4	336.24698874216
21	6085	23.5	337.63104356112
21	6121	23.6	338.99889450448
21	6169	23.7	340.38385656167
21	6205	23.8	341.77324106276
21	6241	23.9	343.14551425977
21	6277	24	344.51811233056
21	6314	24.1	345.9063014694
21	6351	24.2	347.28983391147
21	6387	24.3	348.67300868889
21	6423	24.4	350.04529346785
21	6459	24.5	351.41965255241
21	6495	24.6	352.78711547764
21	6535	24.7	354.16434975507
21	6872	24.8	355.53202819892
21	6907	24.9	356.91521112105
21	6942	25	358.29772003366
21	6977	25.1	359.67869124573
21	7012	25.2	361.04603694971
21	7047	25.3	362.43355153989
21	7082	25.4	363.81382985406
21	7117	25.5	365.18298439821
21	7152	25.6	366.55585709835
21	7303	25.7	367.93229567319
21	7394	25.8	369.31077050248
21	7429	25.9	370.67876783091
21	7464	26	372.05322550851
21	7499	26.1	373.42620807761
21	7534	26.2	374.81354734229
21	7569	26.3	376.18088848646
21	7604	26.4	377.5563663046
21	7639	26.5	378.93733366268
21	7689	26.6	380.31439336012
21	7726	26.7	381.69970456176
21	7767	26.8	383.08962707318
21	7808	26.9	384.45537152808
21	7849	27	385.83019029365
21	7905	27.1	387.20937513474
21	7947	27.2	388.59603914896
21	7988	27.3	389.97596998004
21	8029	27.4	391.35003041263
21	8073	27.5	392.7371932647
21	8454	27.6	394.12114572207
21	8494	27.7	395.50031375368
21	8534	27.8	396.86910999409
21	8574	27.9	398.2538216465
21	8614	28	399.64139019652
21	8666	28.1	401.00676686389
21	8706	28.2	402.38534039494
21	8746	28.3	403.76324773342
21	8786	28.4	405.14462978037
21	8826	28.5	406.52526096279
21	9000	28.6	407.89710240124
21	9040	28.7	409.28007357705
21	9080	28.8	410.65491587372
21	9120	28.9	412.02786289987
21	9160	29	413.40475830349
21	9212	29.1	414.77549144113
21	9252	29.2	416.16335866796
21	9292	29.3	417.54051467459
21	9332	29.4	418.91117828602
21	9372	29.5	420.29050470069
21	9413	29.6	421.65732440542
21	9453	29.7	423.03063457276
21	9493	29.8	424.40810799356
21	9533	29.9	425.7930950933
21	9574	30	427.17909896115
21	9621	30.1	428.55462368104
21	9667	30.2	429.9364142074
21	9713	30.3	431.30299877965
21	9759	30.4	432.66853509097
21	9806	30.5	434.04423900011
21	9852	30.6	435.43261193811
21	10256	30.7	436.80394733093
21	10301	30.8	438.18056062454
21	10346	30.9	439.55238867541
21	10391	31	440.93221562705
21	10436	31.1	442.30290898762
21	10481	31.2	443.6872973142
21	10526	31.3	445.05966862575
21	10571	31.4	446.43331657756
21	10616	31.5	447.81748723367
21	10661	31.6	449.18933155401
21	10706	31.7	450.572723235
21	10751	31.8	451.95879268251
21	10928	31.9	453.33492759786
21	10973	32	454.70604994339
21	11033	32.1	456.08240200345
21	11078	32.2	457.45482821068
21	11123	32.3	458.82772506747
21	11168	32.4	460.21453285136
21	11213	32.5	461.60187647856
21	11258	32.6	462.97593008475
21	11303	32.7	464.34569025026
21	11348	32.8	465.71123594593
21	11393	32.9	467.09518345331
21	11453	33	468.46024755018
21	11510	33.1	469.84594265744
21	11555	33.2	471.22815550569
21	11600	33.3	472.60376715855
21	11716	33.4	473.9756423062
21	11767	33.5	475.35598112111
21	11818	33.6	476.73163032502
21	11869	33.7	478.10776419861
21	11920	33.8	479.49181391675
21	11971	33.9	480.86131335574
21	12034	34	482.22972645016
21	12097	34.1	483.60176079038
21	12148	34.2	484.96739607399
21	12200	34.3	486.34434167731
21	12251	34.4	487.7220518916
21	12302	34.5	489.11032232511
21	12353	34.6	490.49114616906
21	12404	34.7	491.86636953455
21	12455	34.8	493.23886842197
21	12506	34.9	494.62856414287
21	12714	35	496.01561097527
21	13128	35.1	497.40535938291
21	13178	35.2	498.79246284646
21	13228	35.3	500.17527423391
21	13278	35.4	501.54567137518
21	13328	35.5	502.91195786765
21	13378	35.6	504.2987404523
21	13428	35.7	505.67075572584
21	13478	35.8	507.05965531679
21	13528	35.9	508.43890241712
21	13579	36	509.82855579085
21	13771	36.1	511.21079006039
21	13821	36.2	512.58365468698
21	13871	36.3	513.94951677105
21	13921	36.4	515.33488057175
21	13971	36.5	516.70889400244
21	14021	36.6	518.07394606437
21	14072	36.7	519.45083163768
21	14128	36.8	520.83288419106
21	14184	36.9	522.19965189925
21	14240	37	523.58800004267
21	14296	37.1	524.97390793626
21	14352	37.2	526.34349882854
21	14409	37.3	527.70854897845
21	14465	37.4	529.09357619499
21	14521	37.5	530.46536222665
21	14577	37.6	531.83826906549
21	14633	37.7	533.21060880111
21	14689	37.8	534.57671959132
21	15137	37.9	535.96282014297
21	15192	38	537.34193185453
21	15247	38.1	538.71722806813
21	15302	38.2	540.10383935734
21	15357	38.3	541.48465247426
21	15412	38.4	542.85186620248
21	15619	38.5	544.23469828543
21	15674	38.6	545.60319051852
21	15729	38.7	546.97316364658
21	15784	38.8	548.35060231958
21	15839	38.9	549.71604612505
21	15894	39	551.08711096103
21	16097	39.1	552.46816998529
21	16152	39.2	553.85660276373
21	16207	39.3	555.23195006512
21	16262	39.4	556.60806771239
21	16332	39.5	557.97852816925
21	16387	39.6	559.35418792568
21	16594	39.7	560.72822269632
21	16649	39.8	562.09952212638
21	16704	39.9	563.47264397856
21	16760	40	564.85437907106
21	16821	40.1	566.23480996562
21	16882	40.2	567.62230412972
21	16943	40.3	568.99955362465
21	17004	40.4	570.37964805609
21	17077	40.5	571.75588961298
21	17138	40.6	573.12423624526
21	17199	40.7	574.510174977
21	17261	40.8	575.89423689868
21	17322	40.9	577.27130886423
21	17383	41	578.65372656617
21	17462	41.1	580.04128507489
21	17939	41.2	581.41770125887
21	17999	41.3	582.7895299832
21	18059	41.4	584.16662689063
21	18131	41.5	585.54334701265
21	18191	41.6	586.92914345955
21	18251	41.7	588.31133068488
21	18473	41.8	589.68915198176
21	18533	41.9	591.07608336132
21	18593	42	592.46083684955
21	18820	42.1	593.82932779786
21	18880	42.2	595.19572272995
21	18940	42.3	596.57291052055
21	19000	42.4	597.95298517884
21	19061	42.5	599.34111214282
21	19121	42.6	600.71592350882
21	19339	42.7	602.10570090886
21	19399	42.8	603.47891271641
21	19544	42.9	604.85909390299
21	19604	43	606.24180918254
21	19676	43.1	607.60736960716
21	19736	43.2	608.97278773544
21	19796	43.3	610.35414988042
21	19857	43.4	611.73037503131
21	19923	43.5	613.12034712673
21	19989	43.6	614.48832217519
21	20231	43.7	615.86761271239
21	20297	43.8	617.23967372486
21	20363	43.9	618.62621280372
21	20429	44	619.99499197795
21	20497	44.1	621.38349803005
21	20563	44.2	622.76063602159
21	21065	44.3	624.1358628534
21	21130	44.4	625.50735672856
21	21195	44.5	626.87488609817
21	21432	44.6	628.24436071814
21	21497	44.7	629.61147552705
21	21562	44.8	630.9965032217
21	21627	44.9	632.37692656272
21	21692	45	633.76412095478
21	21922	45.1	635.12939374394
21	21987	45.2	636.51938456018
21	22052	45.3	637.90475173709
21	22132	45.4	639.29280191677
21	22197	45.5	640.66600967035
21	22262	45.6	642.04460410782
21	22492	45.7	643.43228282759
21	22557	45.8	644.8018308969
21	22622	45.9	646.17051367168
21	22687	46	647.5475928457
21	22752	46.1	648.93485360329
21	22817	46.2	650.32402996708
21	22882	46.3	651.70667544505
21	22959	46.4	653.07455989371
21	23024	46.5	654.44598743642
21	23261	46.6	655.82794499586
21	23502	46.7	657.19748444177
21	23573	46.8	658.5673313379
21	23644	46.9	659.93974616215
21	23715	47	661.31709003191
21	23786	47.1	662.68604463853
21	23857	47.2	664.06856016457
21	23928	47.3	665.43407705105
21	24011	47.4	666.80458148084
21	24082	47.5	668.18055345755
21	24153	47.6	669.55127123368
21	24404	47.7	670.91737218988
21	24475	47.8	672.30071494735
21	24641	47.9	673.67682338162
21	24712	48	675.05417841574
21	24955	48.1	676.43979652758
21	25026	48.2	677.80752704743
21	25097	48.3	679.18213711682
21	25169	48.4	680.57082468718
21	25240	48.5	681.95209750371
21	25764	48.6	683.32124886368
21	26009	48.7	684.68968221226
21	26079	48.8	686.0674862491
21	26149	48.9	687.44467752034
21	26234	49	688.8144623171
21	26304	49.1	690.18737227956
21	26374	49.2	691.56607649573
21	26444	49.3	692.94653515211
21	26514	49.4	694.31415284223
21	26584	49.5	695.70392073108
21	26832	49.6	697.09034932978
21	27087	49.7	698.46082720017
21	27157	49.8	699.83187815496
21	27412	49.9	701.20382754154
21	27495	50	702.57070691962
21	27571	50.1	703.96001559074
21	27647	50.2	705.34109299272
21	27723	50.3	706.7245866792
21	27799	50.4	708.09768781382
21	27875	50.5	709.47028845825
21	27951	50.6	710.84419735785
21	28028	50.7	712.22058086217
21	28104	50.8	713.60458017055
21	28180	50.9	714.99117508893
21	28268	51	716.36191855284
21	28414	51.1	717.74988002226
21	28490	51.2	719.13629869144
21	29029	51.3	720.51166257161
21	29104	51.4	721.88713083924
21	29179	51.5	723.26826389549
21	29254	51.6	724.64528559757
21	29508	51.7	726.01910746454
21	29583	51.8	727.38611421526
21	29658	51.9	728.76606810228
21	29734	52	730.14516982015
21	29992	52.1	731.51102668338
21	30067	52.2	732.88922754239
21	30142	52.3	734.25531780459
21	30217	52.4	735.62885419782
21	30292	52.5	737.00915404513
21	30549	52.6	738.37835068053
21	30813	52.7	739.75396558045
21	30888	52.8	741.13303822437
21	31151	52.9	742.52026812505
21	31430	53	743.90155378412
21	31506	53.1	745.28784444488
21	31581	53.2	746.66181930234
21	31656	53.3	748.04021205215
21	31732	53.4	749.42854313224
21	31813	53.5	750.81719640473
21	31894	53.6	752.19755325183
21	31975	53.7	753.57036945697
21	32153	53.8	754.93630589822
21	32234	53.9	756.30576409984
21	32328	54	757.69213702755
21	32479	54.1	759.07599079499
21	32560	54.2	760.45444447984
21	32641	54.3	761.8360157519
21	32725	54.4	763.2177971356
21	33280	54.5	764.6077745535
21	33360	54.6	765.98729564348
21	33518	54.7	767.35239313257
21	33598	54.8	768.71784773033
21	33868	54.9	770.10200727665
21	33960	55	771.48279796765
21	34040	55.1	772.85063088715
21	34120	55.2	774.23723649223
21	34200	55.3	775.62241447463
21	34280	55.4	777.00538647764
21	34360	55.5	778.38641493815
21	34629	55.6	779.75318965502
21	34902	55.7	781.13365159989
21	34982	55.8	782.50053762662
21	35254	55.9	783.8660677132
21	35527	56	785.24162716306
21	35607	56.1	786.61779090226
21	35687	56.2	787.98433516842
21	35767	56.3	789.35538058163
21	35847	56.4	790.74193110815
21	36126	56.5	792.12477741799
21	36206	56.6	793.49457977612
21	36288	56.7	794.86548323016
21	36389	56.8	796.24166108626
21	36475	56.9	797.62275475677
21	36561	57	799.00487914223
21	36647	57.1	800.37127264669
21	36733	57.2	801.74109886453
21	36819	57.3	803.12851753406
21	36905	57.4	804.50064422407
21	36991	57.5	805.87794311575
21	37077	57.6	807.256570509
21	37242	57.7	808.62623096708
21	37340	57.8	809.99711514174
21	37426	57.9	811.37250785423
21	37512	58	812.76223841022
21	37598	58.1	814.14429158908
21	37881	58.2	815.51460492718
21	37967	58.3	816.88776846514
21	38356	58.4	818.26894255535
21	38812	58.5	819.63954359419
21	39093	58.6	821.01238631772
21	39381	58.7	822.38756265984
21	39478	58.8	823.77340063154
21	39766	58.9	825.13974024384
21	40148	59	826.51358571815
21	40233	59.1	827.89204177746
21	40318	59.2	829.26719602511
21	40403	59.3	830.63520296505
21	40488	59.4	832.01168058603
21	40790	59.5	833.38027971115
21	40875	59.6	834.75192781921
21	40960	59.7	836.13526520325
21	41252	59.8	837.51688261811
21	41337	59.9	838.88705113557
21	41423	60	840.27210433161
21	41514	60.1	841.6445666827
21	41605	60.2	843.01032609614
21	41696	60.3	844.39261059718
21	41787	60.4	845.77433967812
21	41891	60.5	847.15951346475
21	41982	60.6	848.54642362097
21	42074	60.7	849.92602893305
21	42165	60.8	851.30417886831
21	42256	60.9	852.67360732438
21	42347	61	854.0556565673
21	42438	61.1	855.43789387246
21	42529	61.2	856.81923977566
21	42824	61.3	858.20238416907
21	42918	61.4	859.58917442131
21	43505	61.5	860.96626236718
21	43683	61.6	862.35040507599
21	43980	61.7	863.74016288522
21	44070	61.8	865.10887394043
21	44363	61.9	866.48895477139
21	44656	62	867.86151682803
21	44746	62.1	869.23240794945
21	44836	62.2	870.61413982529
21	44926	62.3	871.98949657307
21	45016	62.4	873.37611549076
21	45315	62.5	874.74932790292
21	45618	62.6	876.11778695995
21	45708	62.7	877.49444788555
21	46007	62.8	878.8744598744
21	46097	62.9	880.26318728244
21	46187	63	881.63829740629
21	46277	63.1	883.01780528579
21	46367	63.2	884.39103753682
21	46457	63.3	885.77701616957
21	46548	63.4	887.16257536238
21	46644	63.5	888.54279773707
21	46741	63.6	889.92847093063
21	46837	63.7	891.30385885586
21	46933	63.8	892.67467483436
21	47029	63.9	894.06433262413
21	47125	64	895.44076759856
21	47221	64.1	896.80756238872
21	47317	64.2	898.19343468553
21	47413	64.3	899.57954216622
21	47510	64.4	900.96034849599
21	47606	64.5	902.32645394473
21	47790	64.6	903.6970897841
21	48103	64.7	905.07735061279
21	48199	64.8	906.45856287323
21	48523	64.9	907.84334220756
21	48832	65	909.228602861
21	48931	65.1	910.59390291857
21	49523	65.2	911.96823699968
21	49618	65.3	913.3343182147
21	49717	65.4	914.71380203944
21	50133	65.5	916.09539327317
21	50655	65.6	917.47880383199
21	50970	65.7	918.85197230451
21	51281	65.8	920.22241892033
21	51388	65.9	921.59382785236
21	51483	66	922.97604122835
21	51578	66.1	924.36289961727
21	51673	66.2	925.7433917439
21	51768	66.3	927.11121691132
21	51863	66.4	928.49653079265
21	51958	66.5	929.86748295979
21	52053	66.6	931.25138916496
21	52149	66.7	932.6220542015
21	52250	66.8	933.99754416982
21	52379	66.9	935.36480522214
21	52480	67	936.75014300471
21	52581	67.1	938.13175175429
21	52682	67.2	939.51264541158
21	52783	67.3	940.89341482837
21	52885	67.4	942.26939643267
21	52986	67.5	943.65314390498
21	53087	67.6	945.04233027454
21	53406	67.7	946.41815786385
21	53510	67.8	947.79151429725
21	54231	67.9	949.16370966212
21	54429	68	950.5488588413
21	54529	68.1	951.93332182795
21	54629	68.2	953.30413162798
21	54941	68.3	954.69235443054
21	55041	68.4	956.07560445024
21	55358	68.5	957.45580471712
21	55678	68.6	958.83014520677
21	55998	68.7	960.21078283427
21	56315	68.8	961.58166753009
21	56427	68.9	962.96643726792
21	56527	69	964.33983773852
21	56627	69.1	965.72970758912
21	56727	69.2	967.09803816456
21	56827	69.3	968.47992316448
21	56927	69.4	969.86500625547
21	57027	69.5	971.24162989142
21	57127	69.6	972.63127567314
21	57227	69.7	974.01963612087
21	57327	69.8	975.40531593423
21	57428	69.9	976.79401518891
21	57530	70	978.15916664341
21	57867	70.1	979.54459284502
21	57973	70.2	980.91980741944
21	58079	70.3	982.29464563286
21	58185	70.4	983.6730125311
21	58291	70.5	985.04931445731
21	58397	70.6	986.42442563407
21	58728	70.7	987.79407278566
21	58834	70.8	989.16764537995
21	59038	70.9	990.55482209369
21	59243	71	991.93740427836
21	59350	71.1	993.32406798028
21	59456	71.2	994.69380988016
21	59577	71.3	996.05932173388
21	59683	71.4	997.44815294171
21	60230	71.5	998.82630028064
21	60566	71.6	1000.2095228202
22	15	0.2	0.48627966244239
22	26	0.3	0.95704413303575
22	35	0.4	1.4049410096237
22	44	0.5	1.8245271876768
22	54	0.6	2.2544701955678
22	63	0.7	2.6363109136032
22	72	0.8	3.0508647608099
22	81	0.9	3.4004409439418
22	93	1	3.8178189181673
22	214	1.1	4.1831971619179
22	223	1.2	4.5319546875829
22	232	1.3	4.9358592605271
22	241	1.4	5.3264624580328
22	250	1.5	5.7520788067189
22	259	1.6	6.0291355562798
22	268	1.7	6.5149573123484
22	277	1.8	6.774041621334
22	286	1.9	7.2058775477047
22	308	2	7.6100171673746
22	317	2.1	7.9906008894608
22	326	2.2	8.2926696311036
22	335	2.3	8.5896274494875
22	344	2.4	8.9574037191045
22	353	2.5	9.3374094262539
22	362	2.6	9.695398285315
22	371	2.7	10.097202087024
22	380	2.8	10.365802928717
22	389	2.9	10.65678323651
22	398	3	11.139024221833
22	407	3.1	11.554675181425
22	416	3.2	12.032892857183
22	425	3.3	12.370849888044
22	434	3.4	12.865795288263
22	444	3.5	13.273734903923
22	455	3.6	13.534446115343
22	466	3.7	13.864912305644
22	477	3.8	13.682478187233
22	489	3.9	13.781597989995
22	500	4	13.699772311875
22	511	4.1	13.769880629878
22	522	4.2	13.730280116585
22	533	4.3	13.719841837103
22	544	4.4	13.75449505219
22	555	4.5	13.765656692942
22	566	4.6	13.710346094891
22	719	4.7	13.873523098393
22	730	4.8	13.781599894317
22	741	4.9	13.853416913864
22	752	5	13.71577045552
22	763	5.1	13.845862410823
22	774	5.2	13.866195456684
22	785	5.3	13.818964748969
22	796	5.4	13.862581284053
22	807	5.5	13.844419653621
22	818	5.6	13.803377755487
22	829	5.7	13.674350382155
22	840	5.8	13.78751250261
22	851	5.9	13.746734134539
22	862	6	13.674412855448
22	873	6.1	13.875179912115
22	884	6.2	13.65754773285
22	895	6.3	13.73671499195
22	906	6.4	13.857272603468
22	917	6.5	13.81046195745
22	928	6.6	13.712328465283
22	939	6.7	13.748042333324
22	951	6.8	13.818738193111
22	964	6.9	13.790349621652
22	977	7	13.660262682685
22	990	7.1	13.847780810355
22	1003	7.2	13.651175108599
22	1016	7.3	13.836677099671
22	1029	7.4	13.781325623719
22	1042	7.5	13.860257603379
22	1055	7.6	13.731311919435
22	1069	7.7	13.865454262623
22	1098	7.8	13.662607237149
22	1111	7.9	13.694751692272
22	1140	8	13.744288476685
22	1153	8.1	13.87597539972
22	1166	8.2	13.680451632862
22	1179	8.3	13.655809727299
22	1192	8.4	13.787210196524
22	1205	8.5	13.890203052759
22	1226	8.6	13.65510331738
22	1436	8.7	13.825964950176
22	1461	8.8	13.727834703436
22	1474	8.9	13.796434252907
22	1499	9	13.845794466708
22	1512	9.1	13.758349637885
22	1525	9.2	13.77275775976
22	1538	9.3	13.876514873502
22	1551	9.4	13.87922187834
22	1564	9.5	13.820357761264
22	1577	9.6	13.689414480212
22	1590	9.7	13.720918200538
22	1615	9.8	13.833817458921
22	1628	9.9	13.753371766745
22	1653	10	13.858764884854
22	1667	10.1	13.898826129478
22	1682	10.2	13.832498007838
22	1697	10.3	13.659452863771
22	1712	10.4	13.755960666027
22	1727	10.5	13.756937024626
22	1742	10.6	13.661812747689
22	1757	10.7	13.688397833472
22	1773	10.8	13.825640762085
22	1788	10.9	13.80087356529
22	1805	11	13.754681781027
22	1820	11.1	13.726867102121
22	1835	11.2	13.774668904231
22	1850	11.3	13.73900245087
22	1865	11.4	13.748401695781
22	1880	11.5	13.824606295943
22	2091	11.6	13.827480597515
22	2106	11.7	13.792807825352
22	2121	11.8	13.825429418043
22	2136	11.9	13.752281809261
22	2151	12	13.736699796142
22	2166	12.1	13.792145391379
22	2181	12.2	13.808109532087
22	2196	12.3	13.67701916045
22	2211	12.4	13.72402785361
22	2226	12.5	13.670129346754
22	2241	12.6	13.650288249284
22	2256	12.7	13.682968484855
22	2271	12.8	13.746110108134
22	2286	12.9	13.687997943175
22	2301	13	13.757724813919
22	2316	13.1	13.882708252443
22	2331	13.2	13.786614329938
22	2361	13.3	13.6834044185
22	2376	13.4	13.68604916425
22	2397	13.5	13.810005485232
22	2418	13.6	13.815149045992
22	2439	13.7	13.850000868645
22	2460	13.8	13.784137255955
22	2481	13.9	13.667979676835
22	2502	14	13.704088937992
22	2523	14.1	13.755692853685
22	2544	14.2	13.833184366499
22	2577	14.3	13.752522505564
22	2599	14.4	13.761439390981
22	2620	14.5	13.853451748646
22	2641	14.6	13.786972740467
22	2662	14.7	13.836410879309
22	2686	14.8	13.778040573501
22	2927	14.9	13.805562040687
22	2947	15	13.686346604233
22	2967	15.1	13.786575790122
22	2987	15.2	13.721325766796
22	3034	15.3	13.734230449109
22	3054	15.4	13.842695169244
22	3074	15.5	13.804134027194
22	3094	15.6	13.770072201942
22	3114	15.7	13.831614491681
22	3134	15.8	13.730030136276
22	3199	15.9	13.846123080561
22	3219	16	13.679925598879
22	3239	16.1	13.770449822163
22	3259	16.2	13.861576424132
22	3292	16.3	13.784106144309
22	3312	16.4	13.698104933754
22	3332	16.5	13.770655222214
22	3352	16.6	13.723881434568
22	3372	16.7	13.854180040106
22	3398	16.8	13.868791734776
22	3424	16.9	13.713251440588
22	3450	17	13.712686395831
22	3476	17.1	13.847710742999
22	3502	17.2	13.884240426857
22	3541	17.3	13.691740476328
22	3567	17.4	13.854592198599
22	3593	17.5	13.703114461654
22	3619	17.6	13.786207795702
22	3645	17.7	13.721109711891
22	3671	17.8	13.775464942888
22	3697	17.9	13.706668496283
22	3973	18	13.704893337714
22	4090	18.1	13.898987973609
22	4115	18.2	13.792944043269
22	4141	18.3	13.869835750875
22	4166	18.4	13.757697310857
22	4191	18.5	13.797156896186
22	4216	18.6	13.824542281427
22	4241	18.7	13.818672422704
22	4266	18.8	13.766633580939
22	4291	18.9	13.83734432006
22	4316	19	13.791962988069
22	4341	19.1	13.805241556873
22	4366	19.2	13.752016209043
22	4391	19.3	13.785371361568
22	4416	19.4	13.686841269117
22	4441	19.5	13.772664483555
22	4466	19.6	13.848351348576
22	4491	19.7	13.855408161622
22	4516	19.8	13.676987584541
22	4541	19.9	13.668709142518
22	4566	20	13.782625423663
22	4598	20.1	13.7963581305
22	4629	20.2	13.792399390112
22	4660	20.3	13.737634242082
22	4691	20.4	13.66089856826
22	4722	20.5	13.876934957493
22	4753	20.6	13.718958090967
22	4785	20.7	13.7816948327
22	4816	20.8	13.740984735871
22	4847	20.9	13.822928459186
22	4878	21	13.685569339118
22	4909	21.1	13.684244345734
22	4955	21.2	13.860146384023
22	4986	21.3	13.665813380713
22	5017	21.4	13.891673843411
22	5325	21.5	13.802056419291
22	5355	21.6	13.66767714665
22	5502	21.7	13.876993104152
22	5532	21.8	13.746383823315
22	5562	21.9	13.737542006455
22	5592	22	13.836702202249
22	5622	22.1	13.654590079945
22	5664	22.2	13.797736476443
22	5694	22.3	13.739993961214
22	5724	22.4	13.827900374227
22	5754	22.5	13.74151726187
22	5784	22.6	13.761328047176
22	5826	22.7	13.788214040257
22	5856	22.8	13.888498172257
22	5886	22.9	13.835691629129
22	5916	23	13.825860933552
22	5946	23.1	13.777622669504
22	5988	23.2	13.885410911962
22	6018	23.3	13.866796249966
22	6049	23.4	13.840548189566
22	6085	23.5	13.678509433614
22	6121	23.6	13.849620571861
22	6169	23.7	13.893845010875
22	6205	23.8	13.722731970111
22	6241	23.9	13.725980707887
22	6277	24	13.881891388423
22	6314	24.1	13.835324420745
22	6351	24.2	13.831747774128
22	6387	24.3	13.722847789619
22	6423	24.4	13.743590845587
22	6459	24.5	13.674629252322
22	6495	24.6	13.772342774295
22	6535	24.7	13.676784438523
22	6872	24.8	13.831829221256
22	6907	24.9	13.825089126104
22	6942	25	13.809712120774
22	6977	25.1	13.673457039788
22	7012	25.2	13.875145901786
22	7047	25.3	13.802783141704
22	7082	25.4	13.691545441491
22	7117	25.5	13.728727001383
22	7152	25.6	13.764385748457
22	7303	25.7	13.784748292854
22	7394	25.8	13.679973284283
22	7429	25.9	13.744576776028
22	7464	26	13.729825690947
22	7499	26.1	13.873392646876
22	7534	26.2	13.673411441711
22	7569	26.3	13.754778181354
22	7604	26.4	13.809673580783
22	7639	26.5	13.770596974448
22	7689	26.6	13.853112016374
22	7726	26.7	13.899225114181
22	7767	26.8	13.657444549061
22	7808	26.9	13.748187655676
22	7849	27	13.791848410829
22	7905	27.1	13.866640142258
22	7947	27.2	13.799308310763
22	7988	27.3	13.740604325931
22	8029	27.4	13.871628520696
22	8073	27.5	13.839524573681
22	8454	27.6	13.791680316126
22	8494	27.7	13.68796240408
22	8534	27.8	13.847116524098
22	8574	27.9	13.875685500249
22	8614	28	13.653766673675
22	8666	28.1	13.785735310498
22	8706	28.2	13.7790733848
22	8746	28.3	13.813820469461
22	8786	28.4	13.806311824278
22	8826	28.5	13.718414384441
22	9000	28.6	13.829711758159
22	9040	28.7	13.748422966606
22	9080	28.8	13.729470261524
22	9120	28.9	13.76895403621
22	9160	29	13.707331376418
22	9212	29.1	13.878672268277
22	9252	29.2	13.771560066298
22	9292	29.3	13.706636114314
22	9332	29.4	13.793264146755
22	9372	29.5	13.668197047233
22	9413	29.6	13.733101673459
22	9453	29.7	13.77473420793
22	9493	29.8	13.849870997458
22	9533	29.9	13.86003867843
22	9574	30	13.755247198953
22	9621	30.1	13.817905263545
22	9667	30.2	13.665845722577
22	9713	30.3	13.65536311313
22	9759	30.4	13.75703909141
22	9806	30.5	13.883729380067
22	9852	30.6	13.713353928155
22	10256	30.7	13.766132936091
22	10301	30.8	13.718280508742
22	10346	30.9	13.798269516416
22	10391	31	13.706933605694
22	10436	31.1	13.843883265776
22	10481	31.2	13.723713115475
22	10526	31.3	13.736479518155
22	10571	31.4	13.841706561076
22	10616	31.5	13.718443203403
22	10661	31.6	13.83391680991
22	10706	31.7	13.860694475099
22	10751	31.8	13.761349153507
22	10928	31.9	13.711223455297
22	10973	32	13.763520600542
22	11033	32.1	13.724262072332
22	11078	32.2	13.72896856789
22	11123	32.3	13.868077838887
22	11168	32.4	13.873436272063
22	11213	32.5	13.740536061849
22	11258	32.6	13.697601655067
22	11303	32.7	13.655456956744
22	11348	32.8	13.839475073828
22	11393	32.9	13.650640968618
22	11453	33	13.856951072614
22	11510	33.1	13.822128482547
22	11555	33.2	13.756116528565
22	11600	33.3	13.718751476472
22	11716	33.4	13.803388149163
22	11767	33.5	13.756492039049
22	11818	33.6	13.761338735907
22	11869	33.7	13.840497181437
22	11920	33.8	13.694994389929
22	11971	33.9	13.684130944172
22	12034	34	13.720343402214
22	12097	34.1	13.656352836033
22	12148	34.2	13.769456033222
22	12200	34.3	13.777102142898
22	12251	34.4	13.882704335125
22	12302	34.5	13.80823843953
22	12353	34.6	13.752233654878
22	12404	34.7	13.724988874141
22	12455	34.8	13.896957209078
22	12506	34.9	13.870468323969
22	12714	35	13.897484076419
22	13128	35.1	13.871034635499
22	13178	35.2	13.828113874514
22	13228	35.3	13.703971412708
22	13278	35.4	13.662864924676
22	13328	35.5	13.867825846514
22	13378	35.6	13.720152735338
22	13428	35.7	13.888995909574
22	13478	35.8	13.79247100323
22	13528	35.9	13.896533737343
22	13579	36	13.822342695354
22	13771	36.1	13.72864626596
22	13821	36.2	13.658620840672
22	13871	36.3	13.853638007049
22	13921	36.4	13.740134306869
22	13971	36.5	13.650520619331
22	14021	36.6	13.768855733075
22	14072	36.7	13.820525533787
22	14128	36.8	13.667677081923
22	14184	36.9	13.883481434174
22	14240	37	13.859078935906
22	14296	37.1	13.695908922737
22	14352	37.2	13.650501499104
22	14409	37.3	13.850272165413
22	14465	37.4	13.717860316602
22	14521	37.5	13.729068388382
22	14577	37.6	13.723397356202
22	14633	37.7	13.661107902101
22	14689	37.8	13.861005516525
22	15137	37.9	13.791117115621
22	15192	38	13.752962135978
22	15247	38.1	13.866112892085
22	15302	38.2	13.808131169213
22	15357	38.3	13.672137282183
22	15412	38.4	13.828320829524
22	15619	38.5	13.684922330873
22	15674	38.6	13.699731280596
22	15729	38.7	13.774386730022
22	15784	38.8	13.654438054748
22	15839	38.9	13.710648359766
22	15894	39	13.810590242594
22	16097	39.1	13.88432778439
22	16152	39.2	13.753473013907
22	16207	39.3	13.761176472739
22	16262	39.4	13.704604568577
22	16332	39.5	13.7565975643
22	16387	39.6	13.740347706398
22	16594	39.7	13.712994300621
22	16649	39.8	13.731218521809
22	16704	39.9	13.817350924981
22	16760	40	13.804308945639
22	16821	40.1	13.874941640918
22	16882	40.2	13.772494949377
22	16943	40.3	13.800944314373
22	17004	40.4	13.762415568845
22	17077	40.5	13.683466322871
22	17138	40.6	13.859387317416
22	17199	40.7	13.840619216708
22	17261	40.8	13.770719655533
22	17322	40.9	13.824177019449
22	17383	41	13.875585087144
22	17462	41.1	13.764161839825
22	17939	41.2	13.71828724331
22	17999	41.3	13.770969074254
22	18059	41.4	13.767201220186
22	18131	41.5	13.857964469038
22	18191	41.6	13.821872253297
22	18251	41.7	13.778212968819
22	18473	41.8	13.86931379562
22	18533	41.9	13.847534882289
22	18593	42	13.684909483104
22	18820	42.1	13.663949320884
22	18880	42.2	13.771877905971
22	18940	42.3	13.800746582891
22	19000	42.4	13.881269639859
22	19061	42.5	13.748113660002
22	19121	42.6	13.897774000338
22	19339	42.7	13.732118075574
22	19399	42.8	13.80181186574
22	19544	42.9	13.827152795542
22	19604	43	13.655604246166
22	19676	43.1	13.654181282828
22	19736	43.2	13.813621449785
22	19796	43.3	13.762251508865
22	19857	43.4	13.89972095422
22	19923	43.5	13.679750484624
22	19989	43.6	13.792905371962
22	20231	43.7	13.720610124676
22	20297	43.8	13.865390788624
22	20363	43.9	13.687791742303
22	20429	44	13.885060520994
22	20497	44.1	13.77137991545
22	20563	44.2	13.752268318122
22	21065	44.3	13.714938751573
22	21130	44.4	13.675293696031
22	21195	44.5	13.694746199739
22	21432	44.6	13.671148089145
22	21497	44.7	13.850276946416
22	21562	44.8	13.804233410198
22	21627	44.9	13.871943920653
22	21692	45	13.652727891551
22	21922	45.1	13.899908162456
22	21987	45.2	13.853671769123
22	22052	45.3	13.880501796759
22	22132	45.4	13.732077535801
22	22197	45.5	13.785944374721
22	22262	45.6	13.876787197636
22	22492	45.7	13.695480693108
22	22557	45.8	13.686827747885
22	22622	45.9	13.770791740133
22	22687	46	13.872607575881
22	22752	46.1	13.891763637925
22	22817	46.2	13.826454779692
22	22882	46.3	13.678844486573
22	22959	46.4	13.714275427139
22	23024	46.5	13.819575594424
22	23261	46.6	13.695394459099
22	23502	46.7	13.698468961264
22	23573	46.8	13.724148242478
22	23644	46.9	13.773438697658
22	23715	47	13.689546066138
22	23786	47.1	13.825155260426
22	23857	47.2	13.655168864795
22	23928	47.3	13.705044297944
22	24011	47.4	13.759719767119
22	24082	47.5	13.707177761279
22	24153	47.6	13.661009561946
22	24404	47.7	13.833427574695
22	24475	47.8	13.76108434276
22	24641	47.9	13.773550341232
22	24712	48	13.856181118323
22	24955	48.1	13.677305198484
22	25026	48.2	13.746100693976
22	25097	48.3	13.886875703558
22	25169	48.4	13.812728165335
22	25240	48.5	13.69151359963
22	25764	48.6	13.684333485819
22	26009	48.7	13.778040368436
22	26079	48.8	13.771912712348
22	26149	48.9	13.697847967595
22	26234	49	13.729099624651
22	26304	49.1	13.787042161718
22	26374	49.2	13.804586563818
22	26444	49.3	13.676176901185
22	26514	49.4	13.897678888496
22	26584	49.5	13.864285987022
22	26832	49.6	13.704778703838
22	27087	49.7	13.710509547882
22	27157	49.8	13.719493865885
22	27412	49.9	13.668793780764
22	27495	50	13.893086711154
22	27571	50.1	13.810774019838
22	27647	50.2	13.834936864825
22	27723	50.3	13.731011346192
22	27799	50.4	13.726006444229
22	27875	50.5	13.739088995999
22	27951	50.6	13.763835043274
22	28028	50.7	13.839993083768
22	28104	50.8	13.865949183854
22	28180	50.9	13.70743463902
22	28268	51	13.879614694254
22	28414	51.1	13.864186691737
22	28490	51.2	13.753638801724
22	29029	51.3	13.754682676319
22	29104	51.4	13.811330562492
22	29179	51.5	13.770217020798
22	29254	51.6	13.738218669756
22	29508	51.7	13.67006750711
22	29583	51.8	13.799538870261
22	29658	51.9	13.791017178714
22	29734	52	13.6585686323
22	29992	52.1	13.782008590095
22	30067	52.2	13.660902621958
22	30142	52.3	13.735363932303
22	30217	52.4	13.802998473088
22	30292	52.5	13.691966354067
22	30549	52.6	13.756148999184
22	30813	52.7	13.790726439131
22	30888	52.8	13.872299006826
22	31151	52.9	13.812856590759
22	31430	53	13.862906607601
22	31506	53.1	13.739748574595
22	31581	53.2	13.783927498013
22	31656	53.3	13.883310800919
22	31732	53.4	13.886532724928
22	31813	53.5	13.803568471025
22	31894	53.6	13.72816205133
22	31975	53.7	13.659364412515
22	32153	53.8	13.694582016184
22	32234	53.9	13.863729277137
22	32328	54	13.838537674432
22	32479	54.1	13.784536848462
22	32560	54.2	13.815712720598
22	32641	54.3	13.817813837063
22	32725	54.4	13.899774178956
22	33280	54.5	13.79521089982
22	33360	54.6	13.650974890834
22	33518	54.7	13.654545977688
22	33598	54.8	13.841595463199
22	33868	54.9	13.807906909939
22	33960	55	13.678329194989
22	34040	55.1	13.866056050849
22	34120	55.2	13.851779823983
22	34200	55.3	13.82972003005
22	34280	55.4	13.81028460511
22	34360	55.5	13.66774716872
22	34629	55.6	13.804619448702
22	34902	55.7	13.668860267301
22	34982	55.8	13.655300865858
22	35254	55.9	13.755594498571
22	35527	56	13.761637391965
22	35607	56.1	13.665442661592
22	35687	56.2	13.710454132152
22	35767	56.3	13.865505265223
22	35847	56.4	13.828463098302
22	36126	56.5	13.698023581388
22	36206	56.6	13.709034540318
22	36288	56.7	13.761778561026
22	36389	56.8	13.810936705128
22	36475	56.9	13.821243854566
22	36561	57	13.663935044582
22	36647	57.1	13.698262178432
22	36733	57.2	13.874186695297
22	36819	57.3	13.721266900108
22	36905	57.4	13.772988916759
22	36991	57.5	13.786273932527
22	37077	57.6	13.696604580828
22	37242	57.7	13.708841746591
22	37340	57.8	13.753927124874
22	37426	57.9	13.897305559926
22	37512	58	13.820531788608
22	37598	58.1	13.703133380949
22	37881	58.2	13.73163537964
22	37967	58.3	13.811740902055
22	38356	58.4	13.706010388478
22	38812	58.5	13.728427235247
[...]
180	54662	68.2	1008
180	54974	68.3	1008
180	55074	68.4	1008
180	55391	68.5	1008
180	55711	68.6	1008
180	56031	68.7	1008
180	56348	68.8	1008
180	56460	68.9	1008
180	56560	69	1008
180	56660	69.1	1008
180	56760	69.2	1008
180	56860	69.3	1008
180	56960	69.4	1008
180	57060	69.5	1008
180	57160	69.6	1008
180	57260	69.7	1008
180	57360	69.8	1008
180	57461	69.9	1008
180	57564	70	1008
180	57901	70.1	1008
180	58007	70.2	1008
180	58113	70.3	1008
180	58219	70.4	1008
180	58325	70.5	1008
180	58431	70.6	1008
180	58762	70.7	1008
180	58868	70.8	1008
180	59072	70.9	1008
180	59277	71	1008
180	59384	71.1	1008
180	59490	71.2	1008
180	59611	71.3	1008
180	59717	71.4	1008
180	60264	71.5	1008
180	60600	71.6	1008
181	46644	63.5	0.49390719431685
181	46741	63.6	0.99300407938386
181	46837	63.7	1.4480745122378
181	46933	63.8	1.9213279652693
181	47029	63.9	2.4131887870344
181	47125	64	2.8751827418443
181	47221	64.1	3.2378898126355
181	47317	64.2	3.7361615802467
181	47413	64.3	4.1938692599057
181	47510	64.4	4.4680010376994
181	47606	64.5	4.7847112880125
181	47790	64.6	5.0629116167118
181	48103	64.7	5.3998503192132
181	48199	64.8	5.7600479693654
181	48523	64.9	6.2005791756245
181	48832	65	6.5766541952188
181	48931	65.1	7.0528091072491
181	49523	65.2	7.424857468476
181	49618	65.3	7.8484892236455
181	49717	65.4	8.1714864130634
181	50133	65.5	8.5829515733793
181	50655	65.6	8.9311103674271
181	50970	65.7	9.2341015266873
181	51281	65.8	9.6577819856619
181	51388	65.9	10.085650734444
181	51483	66	10.492767131786
181	51578	66.1	10.799347715875
181	51673	66.2	11.298654977422
181	51768	66.3	11.733001423025
181	51863	66.4	12.116704035973
181	51958	66.5	12.613258560203
181	52053	66.6	13.062486767377
181	52149	66.7	13.427120203459
181	52250	66.8	13.778406551725
181	52379	66.9	13.735931984941
181	52480	67	13.860494252737
181	52581	67.1	13.834111763898
181	52682	67.2	13.81485310084
181	52783	67.3	13.783863774536
181	52885	67.4	13.745794719295
181	52986	67.5	13.735651500151
181	53087	67.6	13.839912021684
181	53406	67.7	13.652341480867
181	53510	67.8	13.839489025506
181	54231	67.9	13.82960268067
181	54429	68	13.84671088428
181	54529	68.1	13.69886885325
181	54629	68.2	13.675442801183
181	54941	68.3	13.732350492361
181	55041	68.4	13.707519470924
181	55358	68.5	13.781755116861
181	55678	68.6	13.794541597983
181	55998	68.7	13.779971438204
181	56315	68.8	13.802354225924
181	56427	68.9	13.6522555904
181	56527	69	13.891831708234
181	56627	69.1	13.736320502916
181	56727	69.2	13.690699493547
181	56827	69.3	13.834368973481
181	56927	69.4	13.747416348988
181	57027	69.5	13.767443856259
181	57127	69.6	13.859923694376
181	57227	69.7	13.847969311615
181	57327	69.8	13.830442154233
181	57428	69.9	13.844647721772
181	57530	70	13.885677490418
181	57867	70.1	13.737733938592
181	57973	70.2	13.781577817665
181	58079	70.3	13.702127892675
181	58185	70.4	13.806033822801
181	58291	70.5	13.716996061534
181	58397	70.6	13.671981067548
181	58728	70.7	13.740790327522
181	58834	70.8	13.685420820466
181	59038	70.9	13.813963040861
181	59243	71	13.718359259341
181	59350	71.1	13.766662459273
181	59456	71.2	13.699872899079
181	59577	71.3	13.658698415884
181	59683	71.4	13.780720679124
181	60230	71.5	13.804806301463
181	60566	71.6	13.846052234212
182	46741	63.6	4.9909688506701
182	46837	63.7	4.5507043285392
182	46933	63.8	4.7325345303148
182	47029	63.9	4.9186082176509
182	47125	64	4.6199395480995
182	47221	64.1	3.627070707912
182	47317	64.2	4.9827176761117
182	47413	64.3	4.5770767965905
182	47510	64.4	2.7413177779362
182	47606	64.5	3.1671025031316
182	47790	64.6	2.7820032869931
182	48103	64.7	3.3693870250136
182	48199	64.8	3.6019765015226
182	48523	64.9	4.4053120625904
182	48832	65	3.7607501959428
182	48931	65.1	4.7615491203032
182	49523	65.2	3.7204836122692
182	49618	65.3	4.2363175516948
182	49717	65.4	3.2299718941795
182	50133	65.5	4.1146516031586
182	50655	65.6	3.4815879404778
182	50970	65.7	3.0299115926027
182	51281	65.8	4.2368045897456
182	51388	65.9	4.278687487822
182	51483	66	4.0711639734218
182	51578	66.1	3.0658058408881
182	51673	66.2	4.9930726154707
182	51768	66.3	4.343464456033
182	51863	66.4	3.8370261294767
182	51958	66.5	4.9655452423031
182	52053	66.6	4.4922820717329
182	52149	66.7	3.6463343608193
182	52250	66.8	3.5128634826611
182	52379	66.9	-0.42474566784222
182	52480	67	1.2456226779614
182	52581	67.1	-0.26382488838863
182	52682	67.2	-0.19258663058281
182	52783	67.3	-0.30989326303825
182	52885	67.4	-0.38069055241067
182	52986	67.5	-0.10143219144084
182	53087	67.6	1.0426052153343
182	53406	67.7	-1.8757054081652
182	53510	67.8	1.8714754463872
182	54231	67.9	-0.098863448365591
182	54429	68	0.17108203610405
182	54529	68.1	-1.4784203103045
182	54629	68.2	-0.23426052066498
182	54941	68.3	0.56907691177912
182	55041	68.4	-0.24831021437421
182	55358	68.5	0.74235645937733
182	55678	68.6	0.12786481122021
182	55998	68.7	-0.14570159779396
182	56315	68.8	0.22382787719835
182	56427	68.9	-1.5009863552405
182	56527	69	2.3957611783408
182	56627	69.1	-1.5551120531745
182	56727	69.2	-0.45621009368915
182	56827	69.3	1.4366947993403
182	56927	69.4	-0.86952624493279
182	57027	69.5	0.20027507271152
182	57127	69.6	0.9247983811656
182	57227	69.7	-0.1195438276045
182	57327	69.8	-0.17527157382574
182	57428	69.9	0.14205567538738
182	57530	70	0.41029768646695
182	57867	70.1	-1.4794355182676
182	57973	70.2	0.43843879073393
182	58079	70.3	-0.79449924989603
182	58185	70.4	1.0390593012562
182	58291	70.5	-0.89037761266809
182	58397	70.6	-0.45014993986115
182	58728	70.7	0.68809259973932
182	58834	70.8	-0.5536950705573
182	59038	70.9	1.2854222039459
182	59243	71	-0.95603781519458
182	59350	71.1	0.48303199931979
182	59456	71.2	-0.66789560194593
182	59577	71.3	-0.41174483194482
182	59683	71.4	1.2202226324007
182	60230	71.5	0.24085622339044
182	60566	71.6	0.41245932749007
183	46741	63.6	2.3524016057149
183	46837	63.7	2.7682675297438
183	46933	63.8	3.394693042514
183	47029	63.9	4.0882672198591
183	47125	64	4.4521385756452
183	47221	64.1	4.0996490066751
183	47317	64.2	5.7815636859028
183	47413	64.3	5.9452809562624
183	47510	64.4	4.2855948637478
183	47606	64.5	5.0029682607095
183	47790	64.6	4.760717460627
183	48103	64.7	5.7698326479966
183	48199	64.8	6.4056803754233
183	48523	64.9	8.0141707669753
183	48832	65	7.4142255267079
183	48931	65.1	9.5759695995911
183	49523	65.2	8.1633863580628
183	49618	65.3	9.5462073011629
183	49717	65.4	7.9154725860661
183	50133	65.5	10.093572138771
183	50655	65.6	9.1004078575914
183	50970	65.7	8.3710114802638
183	51281	65.8	11.520377574555
183	51388	65.9	12.091261528594
183	51483	66	12.017874246616
183	51578	66.1	9.7265077300752
183	51673	66.2	15.384308880521
183	51768	66.3	14.107022510297
183	51863	66.4	13.063441843087
183	51958	66.5	16.998081208504
183	52053	66.6	16.088001890217
183	52149	66.7	13.780654291165
183	52250	66.8	13.681111160603
183	52379	66.9	0.973
183	52480	67	6.1854673452819
183	52581	67.1	1.1423429995302
183	52682	67.2	1.3787976224647
183	52783	67.3	0.973
183	52885	67.4	0.973
183	52986	67.5	1.6762356359923
183	53087	67.6	5.5000533080774
183	53406	67.7	0.973
183	53510	67.8	8.2644490162729
183	54231	67.9	1.6919787297312
183	54429	68	2.5941278989568
183	54529	68.1	0.973
183	54629	68.2	1.233895456926
183	54941	68.3	3.8950320405233
183	55041	68.4	1.1888849746293
183	55358	68.5	4.4823135193717
183	55678	68.6	2.4430236517414
183	55998	68.7	1.5325975487363
183	56315	68.8	2.7632619349418
183	56427	68.9	0.973
183	56527	69	10.048643493798
183	56627	69.1	0.973
183	56727	69.2	0.973
183	56827	69.3	6.8120263463201
183	56927	69.4	0.973
183	57027	69.5	2.6797091174515
183	57127	69.6	5.1136075007661
183	57227	69.7	1.6243840569633
183	57327	69.8	1.4373650068136
183	57428	69.9	2.4969854977244
183	57530	70	3.4002134256609
183	57867	70.1	0.973
183	57973	70.2	3.4728438484595
183	58079	70.3	0.973
183	58185	70.4	5.4763143848429
183	58291	70.5	0.973
183	58397	70.6	0.973
183	58728	70.7	4.2911621091778
183	58834	70.8	0.973
183	59038	70.9	6.2992843418547
183	59243	71	0.973
183	59350	71.1	3.6177138830761
183	59456	71.2	0.973
183	59577	71.3	0.973
183	59683	71.4	6.0690911027412
183	60230	71.5	2.8202945747742
183	60566	71.6	3.399485515705
184	52149	66.7	20.05
184	52250	66.8	20.05
184	52379	66.9	20.05
184	52480	67	20.05
184	52581	67.1	20.05
184	52682	67.2	20.05
184	52783	67.3	20.05
184	52885	67.4	20.05
184	52986	67.5	20.05
184	53087	67.6	20.05
184	53406	67.7	20.05
184	53510	67.8	20.05
184	54231	67.9	20.05
184	54429	68	20.05
184	54529	68.1	20.05
184	54629	68.2	20.05
184	54941	68.3	20.05
184	55041	68.4	20.05
184	55358	68.5	20.05
184	55678	68.6	20.05
184	55998	68.7	20.05
184	56315	68.8	20.05
184	56427	68.9	20.05
184	56527	69	20.05
184	56627	69.1	20.05
184	56727	69.2	20.05
184	56827	69.3	20.05
184	56927	69.4	20.05
184	57027	69.5	20.05
184	57127	69.6	20.05
184	57227	69.7	20.05
184	57327	69.8	20.05
184	57428	69.9	20.05
184	57530	70	20.05
184	57867	70.1	20.05
184	57973	70.2	20.05
184	58079	70.3	20.05
184	58185	70.4	20.05
184	58291	70.5	20.05
184	58397	70.6	20.05
184	58728	70.7	20.05
184	58834	70.8	20.05
184	59038	70.9	20.05
184	59243	71	20.05
184	59350	71.1	20.05
184	59456	71.2	20.05
184	59577	71.3	20.05
184	59683	71.4	20.05
184	60230	71.5	20.05
184	60566	71.6	20.05
185	52149	66.7	39.95
185	52250	66.8	39.95
185	52379	66.9	39.99849113858
185	52480	67	40.094194189903
185	52581	67.1	40.238500016562
185	52682	67.2	40.427335902628
185	52783	67.3	40.656406646134
185	52885	67.4	40.923923855679
185	52986	67.5	41.227777307052
185	53087	67.6	41.578248778006
185	53406	67.7	41.971972901348
185	53510	67.8	42.405451173153
185	54231	67.9	42.880772728923
185	54429	68	43.401146594755
185	54529	68.1	43.954621075907
185	54629	68.2	44.554039847189
185	54941	68.3	45.181045313657
185	55041	68.4	45.854432598843
185	55358	68.5	46.564991367849
185	55678	68.6	47.302315141295
185	55998	68.7	48.081993076133
185	56315	68.8	48.896160483228
185	56427	68.9	49.752110454206
185	56527	69	50.653569220807
185	56627	69.1	51.583201527003
185	56727	69.2	52.555168848012
185	56827	69.3	53.553488163059
185	56927	69.4	54.597547897877
185	57027	69.5	55.674394838964
185	57127	69.6	56.778465567357
185	57227	69.7	57.93214378244
185	57327	69.8	59.131490373743
185	57428	69.9	60.356351798547
185	57530	70	61.627335521043
185	57867	70.1	62.928039238989
185	57973	70.2	64.278741145601
185	58079	70.3	65.655220507643
185	58185	70.4	67.0294262726
185	58291	70.5	68.41194676701
185	58397	70.6	69.787888609348
185	58728	70.7	71.161158781052
185	58834	70.8	72.546461034792
185	59038	70.9	73.923979275996
185	59243	71	75.303200147743
185	59350	71.1	76.679570117975
185	59456	71.2	78.058137890191
185	59577	71.3	79.435169694368
185	59683	71.4	80.815761157838
185	60230	71.5	82.198052696855
185	60566	71.6	83.583174230313
186	52166	66.7	1000
186	52267	66.8	1000
186	52396	66.9	1000
186	52497	67	1000
186	52598	67.1	1000
186	52699	67.2	1000
186	52800	67.3	1000
186	52902	67.4	1000
186	53003	67.5	1000
186	53104	67.6	1000
186	53423	67.7	1000
186	53527	67.8	1000
186	54248	67.9	1000
186	54446	68	1000
186	54546	68.1	1000
186	54646	68.2	1000
186	54958	68.3	1000
186	55058	68.4	1000
186	55375	68.5	1000
186	55695	68.6	1000
186	56015	68.7	1000
186	56332	68.8	1000
186	56444	68.9	1000
186	56544	69	1000
186	56644	69.1	1000
186	56744	69.2	1000
186	56844	69.3	1000
186	56944	69.4	1000
186	57044	69.5	1000
186	57144	69.6	1000
186	57244	69.7	1000
186	57344	69.8	1000
186	57445	69.9	1000
186	57547	70	1000
186	57884	70.1	1000
186	57990	70.2	1000
186	58096	70.3	1000
186	58202	70.4	1000
186	58308	70.5	1000
186	58414	70.6	1000
186	58745	70.7	1000
186	58851	70.8	1000
186	59055	70.9	1000
186	59260	71	1000
186	59367	71.1	1000
186	59473	71.2	1000
186	59594	71.3	1000
186	59700	71.4	1000
186	60247	71.5	1000
186	60583	71.6	1000
187	52184	66.7	1008
187	52284	66.8	1008
187	52413	66.9	1008
187	52514	67	1008
187	52615	67.1	1008
187	52716	67.2	1008
187	52817	67.3	1008
187	52919	67.4	1008
187	53020	67.5	1008
187	53121	67.6	1008
187	53440	67.7	1008
187	53544	67.8	1008
187	54265	67.9	1008
187	54463	68	1008
187	54563	68.1	1008
187	54663	68.2	1008
187	54975	68.3	1008
187	55075	68.4	1008
187	55392	68.5	1008
187	55712	68.6	1008
187	56032	68.7	1008
187	56349	68.8	1008
187	56461	68.9	1008
187	56561	69	1008
187	56661	69.1	1008
187	56761	69.2	1008
187	56861	69.3	1008
187	56961	69.4	1008
187	57061	69.5	1008
187	57161	69.6	1008
187	57261	69.7	1008
187	57361	69.8	1008
187	57462	69.9	1008
187	57565	70	1008
187	57902	70.1	1008
187	58008	70.2	1008
187	58114	70.3	1008
187	58220	70.4	1008
187	58326	70.5	1008
187	58432	70.6	1008
187	58763	70.7	1008
187	58869	70.8	1008
187	59073	70.9	1008
187	59278	71	1008
187	59385	71.1	1008
187	59491	71.2	1008
187	59612	71.3	1008
187	59718	71.4	1008
187	60265	71.5	1008
187	60601	71.6	1008
188	52250	66.8	0.48491138579557
188	52379	66.9	0.95703051323508
188	52480	67	1.4430582665918
188	52581	67.1	1.8883588606614
188	52682	67.2	2.2907074350521
188	52783	67.3	2.6751720954577
188	52885	67.4	3.0385345137259
188	52986	67.5	3.5047147095439
188	53087	67.6	3.9372412334206
188	53406	67.7	4.3347827180499
188	53510	67.8	4.7532155577003
188	54231	67.9	5.203738658319
188	54429	68	5.5347448115147
188	54529	68.1	5.9941877128233
188	54629	68.2	6.270054664675
188	54941	68.3	6.7338728518601
188	55041	68.4	7.1055876900584
188	55358	68.5	7.3732377344652
188	55678	68.6	7.7967793483779
188	55998	68.7	8.1416740709476
188	56315	68.8	8.5594997097881
188	56427	68.9	9.0145876660038
188	56527	69	9.2963230619582
188	56627	69.1	9.719673210094
188	56727	69.2	9.983193150468
188	56827	69.3	10.440597348186
188	56927	69.4	10.76846941087
188	57027	69.5	11.040707283924
188	57127	69.6	11.536782150835
188	57227	69.7	11.993465913032
188	57327	69.8	12.248614248042
188	57428	69.9	12.709837224954
188	57530	70	13.007037179466
188	57867	70.1	13.507019066115
188	57973	70.2	13.764793620422
188	58079	70.3	13.74205764957
188	58185	70.4	13.825204944098
188	58291	70.5	13.759418423381
188	58397	70.6	13.732701717038
188	58728	70.7	13.853022537404
188	58834	70.8	13.775182412041
188	59038	70.9	13.792208717472
188	59243	71	13.763699702313
188	59350	71.1	13.785677722166
188	59456	71.2	13.770318041765
188	59577	71.3	13.805914634699
188	59683	71.4	13.822915390169
188	60230	71.5	13.851215334586
188	60566	71.6	13.667556433799
189	52379	66.9	4.7211912743952
189	52480	67	4.8602775335672
189	52581	67.1	4.4530059406965
189	52682	67.2	4.0234857439064
189	52783	67.3	3.8446466040565
189	52885	67.4	3.6336241826818
189	52986	67.5	4.6618019581802
189	53087	67.6	4.3252652387663
189	53406	67.7	3.9754148462931
189	53510	67.8	4.1843283965042
189	54231	67.9	4.5052310061874
189	54429	68	3.3100615319563
189	54529	68.1	4.5944290130865
189	54629	68.2	2.7586695185164
189	54941	68.3	4.638181871851
189	55041	68.4	3.7171483819839
189	55358	68.5	2.6765004440676
189	55678	68.6	4.2354161391268
189	55998	68.7	3.4489472256973
189	56315	68.8	4.1782563884044
189	56427	68.9	4.5508795621572
189	56527	69	2.8173539595446
189	56627	69.1	4.233501481358
189	56727	69.2	2.6351994037395
189	56827	69.3	4.5740419771755
189	56927	69.4	3.2787206268404
189	57027	69.5	2.7223787305411
189	57127	69.6	4.9607486691093
189	57227	69.7	4.5668376219692
189	57327	69.8	2.5514833501074
189	57428	69.9	4.6122297691181
189	57530	70	2.971999545116
189	57867	70.1	4.9998188664904
189	57973	70.2	2.5777455430683
189	58079	70.3	-0.227359708515
189	58185	70.4	0.83147294528317
189	58291	70.5	-0.65786520717666
189	58397	70.6	-0.26716706342995
189	58728	70.7	1.2032082036603
189	58834	70.8	-0.77840125362854
189	59038	70.9	0.170263054315
189	59243	71	-0.28509015159216
189	59350	71.1	0.21978019853123
189	59456	71.2	-0.15359680401161
189	59577	71.3	0.35596592933871
189	59683	71.4	0.1700075546978
189	60230	71.5	0.28299944417085
189	60566	71.6	-1.8365890078712
190	52379	66.9	2.2451642369169
190	52480	67	2.8701836790003
190	52581	67.1	3.2282549300063
190	52682	67.2	3.4428216507991
190	52783	67.3	3.7195259009625
190	52885	67.4	3.9200255783329
190	52986	67.5	5.2205711106105
190	53087	67.6	5.4097074718132
190	53406	67.7	5.4796812241771
190	53510	67.8	6.1424682311466
190	54231	67.9	7.0240603843724
190	54429	68	5.8078621083355
190	54529	68.1	8.0561641757657
190	54629	68.2	5.6038177692556
190	54941	68.3	8.990185114577
190	55041	68.4	7.8513333237488
190	55358	68.5	6.258722701426
190	55678	68.6	9.488348762626
190	55998	68.7	8.319939155861
190	56315	68.8	10.199914201547
190	56427	68.9	11.499392876191
190	56527	69	7.9447109772503
190	56627	69.1	11.580431255681
190	56727	69.2	8.0236599382323
190	56827	69.3	13.227920818088
190	56927	69.4	10.253764956897
190	57027	69.5	9.0106639154291
190	57127	69.6	15.601073015785
190	57227	69.7	15.048037817232
190	57327	69.8	9.402397058126
190	57428	69.9	16.040376129423
190	57530	70	11.257060613275
190	57867	70.1	18.26458834144
190	57973	70.2	10.566133242622
190	58079	70.3	1.2596719118881
190	58185	70.4	4.7914023432559
190	58291	70.5	0.973
190	58397	70.6	1.12749824239
190	58728	70.7	6.0408622966426
190	58834	70.8	0.973
190	59038	70.9	2.5836446842837
190	59243	71	0.973
190	59350	71.1	2.7472307014874
190	59456	71.2	1.5057617870202
190	59577	71.3	3.2034668569449
190	59683	71.4	2.587157232629
190	60230	71.5	2.9683666416588
190	60566	71.6	0.973
191	57530	70	20.05
191	57867	70.1	20.05
191	57973	70.2	20.05
191	58079	70.3	20.05
191	58185	70.4	20.05
191	58291	70.5	20.05
191	58397	70.6	20.05
191	58728	70.7	20.05
191	58834	70.8	20.05
191	59038	70.9	20.05
191	59243	71	20.05
191	59350	71.1	20.05
191	59456	71.2	20.05
191	59577	71.3	20.05
191	59683	71.4	20.05
191	60230	71.5	20.05
191	60566	71.6	20.05
192	57530	70	39.95
192	57867	70.1	39.95
192	57973	70.2	39.99993531786
192	58079	70.3	40.098751745908
192	58185	70.4	40.243487602938
192	58291	70.5	40.435118392109
192	58397	70.6	40.668500832209
192	58728	70.7	40.947621782716
192	58834	70.8	41.26277232845
192	59038	70.9	41.611328328927
192	59243	71	42.004540333201
192	59350	71.1	42.425893839783
192	59456	71.2	42.884799633678
192	59577	71.3	43.371502260907
192	59683	71.4	43.896441804923
192	60230	71.5	44.468152983239
192	60566	71.6	45.067528626762
193	57548	70	1000
193	57885	70.1	1000
193	57991	70.2	1000
193	58097	70.3	1000
193	58203	70.4	1000
193	58309	70.5	1000
193	58415	70.6	1000
193	58746	70.7	1000
193	58852	70.8	1000
193	59056	70.9	1000
193	59261	71	1000
193	59368	71.1	1000
193	59474	71.2	1000
193	59595	71.3	1000
193	59701	71.4	1000
193	60248	71.5	1000
193	60584	71.6	1000
194	57567	70	1008
194	57903	70.1	1008
194	58009	70.2	1008
194	58115	70.3	1008
194	58221	70.4	1008
194	58327	70.5	1008
194	58433	70.6	1008
194	58764	70.7	1008
194	58870	70.8	1008
194	59074	70.9	1008
194	59279	71	1008
194	59386	71.1	1008
194	59492	71.2	1008
194	59613	71.3	1008
194	59719	71.4	1008
194	60266	71.5	1008
194	60602	71.6	1008
195	57867	70.1	0.49935317860218
195	57973	70.2	0.98816428047984
195	58079	70.3	1.4473585703017
195	58185	70.4	1.916307891712
195	58291	70.5	2.333824400999
195	58397	70.6	2.7912095050711
195	58728	70.7	3.1515054573356
195	58834	70.8	3.4855600047733
195	59038	70.9	3.9321200427375
195	59243	71	4.2135350658158
195	59350	71.1	4.5890579389533
195	59456	71.2	4.8670262722889
195	59577	71.3	5.2493954401588
195	59683	71.4	5.7171117831612
195	60230	71.5	5.9937564352303
195	60566	71.6	6.4306756723098
196	57973	70.2	4.8881110187766
196	58079	70.3	4.5919428982182
196	58185	70.4	4.6894932141034
196	58291	70.5	4.1751650928695
196	58397	70.6	4.5738510407213
196	58728	70.7	3.6029595226448
196	58834	70.8	3.3405454743777
196	59038	70.9	4.465600379642
196	59243	71	2.8141502307826
196	59350	71.1	3.7552287313752
196	59456	71.2	2.7796833333559
196	59577	71.3	3.8236916786991
196	59683	71.4	4.6771634300239
196	60230	71.5	2.7664465206908
196	60566	71.6	4.3691923707956
197	57973	70.2	2.3218500489019
197	58079	70.3	2.7818319555341
197	58185	70.4	3.3688423732088
197	58291	70.5	3.5720866075671
197	58397	70.6	4.3234017444524
197	58728	70.7	4.0014140779661
197	58834	70.8	4.0881802180094
197	59038	70.9	5.5370875038641
197	59243	71	4.1778339636167
197	59350	71.1	5.4934478271683
197	59456	71.2	4.6158745212476
197	59577	71.3	6.2139625199266
197	59683	71.4	7.8473636787241
197	60230	71.5	5.4151494210757
197	60566	71.6	8.2161252904992

