version 2
run Lamda_3-0-20200724-15:58:10-13548
attr configname Lamda_3
attr datetime 20200724-15:58:10
attr experiment Lamda_3
attr inifile CNPOMNeTPP.ini
attr iterationvars ""
attr iterationvarsf ""
attr measurement ""
attr network CNPNet
attr processid 13548
attr repetition 0
attr replication #0
attr resultdir results
attr runnumber 0
attr seedset 0
param *.manager.launchConfig "xmldoc(\"CAN2Mapd4.launchd.xml\")"
param *.node[*].appl.lambda 3
param *.manager.seed 0
param *.n 3
param **.debug false
param **.coreDebug false
param *.playgroundSizeX 2500m
param *.playgroundSizeY 2500m
param *.playgroundSizeZ 50m
param *.annotations.draw true
param *.obstacles.debug false
param *.obstacles.obstacles "xmldoc(\"config.xml\", \"//AnalogueModel[@type='SimpleObstacleShadowing']/obstacles\")"
param *.manager.updateInterval 0.1s
param *.manager.host "\"localhost\""
param *.manager.port 9999
param *.manager.autoShutdown true
param *.rsu[0].mobility.x 50
param *.rsu[0].mobility.y 1025
param *.rsu[0].mobility.z 0
param *.rsu[1].mobility.x 50
param *.rsu[1].mobility.y 684
param *.rsu[1].mobility.z 0
param *.rsu[2].mobility.x 50
param *.rsu[2].mobility.y 340
param *.rsu[2].mobility.z 0
param *.rsu[0].mobility.x 325
param *.rsu[0].mobility.y 1025
param *.rsu[0].mobility.z 0
param *.rsu[*].applType "\"CNPTraCIDemoRSU11p\""
param **.rsu[*].app[*].typename "\"UdpBasicApp\""
param **.rsu[*].app[0].destPort 1000
param **.rsu[*].app[0].messageLength 1000B
param **.node[*].app[0].sendInterval 100ms
param **.rsu[*].app[0].sendInterval "uniform(5s, 10s)"
param **.rsu[*].app[0].sendInterval 100ms
param **.rsu[*].app[0].destAddresses "\"node[*]\""
param **.rsu[*].app[0].localAddress "\"\""
param **.rsu[*].app[0].localPort 1000
param **.*.app[0].localPort 1000
param **.rsu[*].app[0].replyDelay 0s
param **.eth[*].queue.typename "\"EtherQosQueue\""
param **.eth[*].queue.dataQueue.typename "\"DropTailQueue\""
param **.eth[*].queue.dataQueue.frameCapacity 10
param **.eth[*].mac.duplexMode true
param *.rsu[*].appl.headerLength "80 bit"
param *.rsu[*].appl.sendCCM true
param *.rsu[*].appl.dataOnSch true
param *.rsu[*].appl.CCMInterval 1s
param *.rsu[*].appl.CCMUserPriority 7
param *.rsu[*].appl.dataUserPriority 5
param *.connectionManager.sendDirect true
param *.connectionManager.maxInterfDist 700m
param *.connectionManager.drawMaxIntfDist true
param *.**.nic.mac1609_4.useServiceChannel true
param *.**.nic.mac1609_4.txPower 20mW
param *.**.nic.mac1609_4.bitrate 6Mbps
param *.**.nic.phy80211p.sensitivity -89dBm
param *.**.nic.phy80211p.useThermalNoise true
param *.**.nic.phy80211p.thermalNoise -110dBm
param *.**.nic.phy80211p.decider "xmldoc(\"config.xml\")"
param *.**.nic.phy80211p.analogueModels "xmldoc(\"config.xml\")"
param *.**.nic.phy80211p.usePropagationDelay true
param *.**.nic.phy80211p.maxt2cThresh 3.0
param *.**.nic.phy80211p.mint2cThresh 1.0
param *.**.nic.phy80211p.antenna "xmldoc(\"antenna.xml\", \"/root/Antenna[@id='monopole']\")"
param **.node[*].app[*].typename "\"UdpBasicApp\""
param **.node[*].app[0].destPort 1000
param **.node[*].app[0].messageLength 1000B
param **.node[*].app[0].sendInterval 100ms
param **.node[*].app[0].destAddresses "\"rsu[0]\""
param **.node[*].app[0].connectPort 1000
param **.node[0].app[0].startTime uniform(1700s,1700.5s)
param **.node[1].app[0].startTime uniform(1700.5s,1800s)
param **.node[2].app[0].startTime uniform(1800s,1800.5s)
param **.node[3].app[0].startTime uniform(1800.5s,1900s)
param **.node[*].app[0].sendInterval 200ms
param **.node[*].app[0].numCommands int(exponential(10))
param **.node[*].app[0].commandLength intWithUnit(exponential(10B))
param **.node[*].app[0].keyPressDelay exponential(0.1s)
param **.node[*].app[0].commandOutputLength intWithUnit(exponential(40B))
param **.node[*].app[0].thinkTime truncnormal(2s,3s)
param **.node[*].app[0].idleInterval truncnormal(3600s,1200s)
param **.node[*].app[0].reconnectInterval 30s
param *.node[*].applType "\"CNPTraCIDemo11p\""
param *.node[*].appl.headerLength "80 bit"
param *.node[*].appl.sendCCM true
param *.node[*].appl.dataOnSch true
param *.node[*].appl.CCMInterval 0.5s
param *.node[*].appl.maximumAcceleration 5.0
param *.node[*].appl.emergentManeuverTime 3.0
param *.node[*].appl.singleClusterFormationPeriod 12.0
param *.node[*3].appl.tesVeh false
param *.node[*].veinsmobilityType.debug true
param *.node[*].veinsmobility.x 0
param *.node[*].veinsmobility.y 0
param *.node[*].veinsmobility.z 1.895

scalar CNPNet.node[0].lo[0].lo rcvdPkFromHl:count 0
attr interpolationmode none
attr source packetReceivedFromUpper
attr title "packets received from higher layer, count"
scalar CNPNet.node[0].lo[0].lo rcvdPkFromHl:sum(packetBytes) 0
attr interpolationmode none
attr source packetReceivedFromUpper
attr title "packets received from higher layer, sum(packetBytes)"
scalar CNPNet.node[0].lo[0].lo passedUpPk:count 0
attr interpolationmode none
attr source packetSentToUpper
attr title "packets passed to higher layer, count"
scalar CNPNet.node[0].lo[0].lo passedUpPk:sum(packetBytes) 0
attr interpolationmode none
attr source packetSentToUpper
attr title "packets passed to higher layer, sum(packetBytes)"
scalar CNPNet.node[0].ipv6.neighbourDiscovery startDad:count 0
attr title "DAD started, count"
scalar CNPNet.node[0].udp packetReceived:count 6
attr interpolationmode none
attr source packetReceived
attr title "packets received, count"
scalar CNPNet.node[0].udp packetReceived:sum(packetBytes) 6048
attr interpolationmode none
attr source packetReceived
attr title "packets received, sum(packetBytes)"
scalar CNPNet.node[0].udp packetSent:count 0
attr interpolationmode none
attr source packetSent
attr title "packets sent, count"
scalar CNPNet.node[0].udp packetSent:sum(packetBytes) 0
attr interpolationmode none
attr source packetSent
attr title "packets sent, sum(packetBytes)"
scalar CNPNet.node[0].udp passedUpPk:count 0
attr interpolationmode none
attr source packetSentToUpper
attr title "packets passed up, count"
scalar CNPNet.node[0].udp droppedPkWrongPort:count 6
attr interpolationmode none
attr source packetDropReasonIsNoPortFound(packetDropped)
attr title "packets dropped (wrong port), count"
scalar CNPNet.node[0].udp droppedPkBadChecksum:count 0
attr interpolationmode none
attr source packetDropReasonIsIncorrectlyReceived(packetDropped)
attr title "packets dropped (checksum error), count"
scalar CNPNet.node[0].app[0] "packets sent" 0
scalar CNPNet.node[0].app[0] "packets received" 0
scalar CNPNet.node[0].app[0] packetReceived:count 0
attr interpolationmode none
attr source packetReceived
attr title "packets received, count"
scalar CNPNet.node[0].app[0] packetReceived:sum(packetBytes) 0
attr interpolationmode none
attr source packetReceived
attr title "packets received, sum(packetBytes)"
statistic CNPNet.node[0].app[0] rcvdPkLifetime:stats
field count 0
field mean -nan
field stddev -nan
field min -nan
field max -nan
field sum 0
field sqrsum 0
attr interpolationmode none
attr source dataAge(packetReceived)
attr title "received packet lifetime, stats"
attr unit s
scalar CNPNet.node[0].app[0] packetSent:count 0
attr interpolationmode none
attr source packetSent
attr title "packets sent, count"
scalar CNPNet.node[0].app[0] packetSent:sum(packetBytes) 0
attr interpolationmode none
attr source packetSent
attr title "packets sent, sum(packetBytes)"
scalar CNPNet.node[0].nic.phy80211p busyTime 0.00048280350438047
scalar CNPNet.node[0].nic.mac1609_4 ReceivedUnicastPackets 14
scalar CNPNet.node[0].nic.mac1609_4 ReceivedBroadcasts 34
scalar CNPNet.node[0].nic.mac1609_4 SentPackets 14
scalar CNPNet.node[0].nic.mac1609_4 SentAcknowledgements 0
scalar CNPNet.node[0].nic.mac1609_4 SNIRLostPackets 7
scalar CNPNet.node[0].nic.mac1609_4 RXTXLostPackets 2
scalar CNPNet.node[0].nic.mac1609_4 TotalLostPackets 9
scalar CNPNet.node[0].nic.mac1609_4 DroppedPacketsInMac 0
scalar CNPNet.node[0].nic.mac1609_4 TooLittleTime 0
scalar CNPNet.node[0].nic.mac1609_4 TimesIntoBackoff 16
scalar CNPNet.node[0].nic.mac1609_4 SlotsBackoff 71
scalar CNPNet.node[0].nic.mac1609_4 NumInternalContention 0
scalar CNPNet.node[0].nic.mac1609_4 totalBusyTime 0.039662
scalar CNPNet.node[0].veinsmobility startTime 0.1
scalar CNPNet.node[0].veinsmobility totalTime 79.9
scalar CNPNet.node[0].veinsmobility stopTime 80
scalar CNPNet.node[0].veinsmobility minSpeed 0.48627966244239
scalar CNPNet.node[0].veinsmobility maxSpeed 13.899986162409
scalar CNPNet.node[0].veinsmobility totalDistance 1077.1361164165
scalar CNPNet.node[0].veinsmobility totalCO2Emission 247.54324005298
scalar CNPNet.node[1].lo[0].lo rcvdPkFromHl:count 0
attr interpolationmode none
attr source packetReceivedFromUpper
attr title "packets received from higher layer, count"
scalar CNPNet.node[1].lo[0].lo rcvdPkFromHl:sum(packetBytes) 0
attr interpolationmode none
attr source packetReceivedFromUpper
attr title "packets received from higher layer, sum(packetBytes)"
scalar CNPNet.node[1].lo[0].lo passedUpPk:count 0
attr interpolationmode none
attr source packetSentToUpper
attr title "packets passed to higher layer, count"
scalar CNPNet.node[1].lo[0].lo passedUpPk:sum(packetBytes) 0
attr interpolationmode none
attr source packetSentToUpper
attr title "packets passed to higher layer, sum(packetBytes)"
scalar CNPNet.node[1].ipv6.neighbourDiscovery startDad:count 0
attr title "DAD started, count"
scalar CNPNet.node[1].udp packetReceived:count 0
attr interpolationmode none
attr source packetReceived
attr title "packets received, count"
scalar CNPNet.node[1].udp packetReceived:sum(packetBytes) 0
attr interpolationmode none
attr source packetReceived
attr title "packets received, sum(packetBytes)"
scalar CNPNet.node[1].udp packetSent:count 0
attr interpolationmode none
attr source packetSent
attr title "packets sent, count"
scalar CNPNet.node[1].udp packetSent:sum(packetBytes) 0
attr interpolationmode none
attr source packetSent
attr title "packets sent, sum(packetBytes)"
scalar CNPNet.node[1].udp passedUpPk:count 0
attr interpolationmode none
attr source packetSentToUpper
attr title "packets passed up, count"
scalar CNPNet.node[1].udp droppedPkWrongPort:count 0
attr interpolationmode none
attr source packetDropReasonIsNoPortFound(packetDropped)
attr title "packets dropped (wrong port), count"
scalar CNPNet.node[1].udp droppedPkBadChecksum:count 0
attr interpolationmode none
attr source packetDropReasonIsIncorrectlyReceived(packetDropped)
attr title "packets dropped (checksum error), count"
scalar CNPNet.node[1].app[0] "packets sent" 0
scalar CNPNet.node[1].app[0] "packets received" 0
scalar CNPNet.node[1].app[0] packetReceived:count 0
attr interpolationmode none
attr source packetReceived
attr title "packets received, count"
scalar CNPNet.node[1].app[0] packetReceived:sum(packetBytes) 0
attr interpolationmode none
attr source packetReceived
attr title "packets received, sum(packetBytes)"
statistic CNPNet.node[1].app[0] rcvdPkLifetime:stats
field count 0
field mean -nan
field stddev -nan
field min -nan
field max -nan
field sum 0
field sqrsum 0
attr interpolationmode none
attr source dataAge(packetReceived)
attr title "received packet lifetime, stats"
attr unit s
scalar CNPNet.node[1].app[0] packetSent:count 0
attr interpolationmode none
attr source packetSent
attr title "packets sent, count"
scalar CNPNet.node[1].app[0] packetSent:sum(packetBytes) 0
attr interpolationmode none
attr source packetSent
attr title "packets sent, sum(packetBytes)"
scalar CNPNet.node[1].nic.phy80211p busyTime 0.00051131782945736
scalar CNPNet.node[1].nic.mac1609_4 ReceivedUnicastPackets 8
scalar CNPNet.node[1].nic.mac1609_4 ReceivedBroadcasts 34
scalar CNPNet.node[1].nic.mac1609_4 SentPackets 14
scalar CNPNet.node[1].nic.mac1609_4 SentAcknowledgements 0
scalar CNPNet.node[1].nic.mac1609_4 SNIRLostPackets 6
scalar CNPNet.node[1].nic.mac1609_4 RXTXLostPackets 3
scalar CNPNet.node[1].nic.mac1609_4 TotalLostPackets 9
scalar CNPNet.node[1].nic.mac1609_4 DroppedPacketsInMac 0
scalar CNPNet.node[1].nic.mac1609_4 TooLittleTime 0
scalar CNPNet.node[1].nic.mac1609_4 TimesIntoBackoff 14
scalar CNPNet.node[1].nic.mac1609_4 SlotsBackoff 132
scalar CNPNet.node[1].nic.mac1609_4 NumInternalContention 0
scalar CNPNet.node[1].nic.mac1609_4 totalBusyTime 0.040814
scalar CNPNet.node[1].veinsmobility startTime 2.6
scalar CNPNet.node[1].veinsmobility totalTime 77.4
scalar CNPNet.node[1].veinsmobility stopTime 80
scalar CNPNet.node[1].veinsmobility minSpeed 0.47686008416931
scalar CNPNet.node[1].veinsmobility maxSpeed 13.899521380232
scalar CNPNet.node[1].veinsmobility totalDistance 1042.9143991389
scalar CNPNet.node[1].veinsmobility totalCO2Emission 243.77102339719
scalar CNPNet.node[10].lo[0].lo rcvdPkFromHl:count 0
attr interpolationmode none
attr source packetReceivedFromUpper
attr title "packets received from higher layer, count"
scalar CNPNet.node[10].lo[0].lo rcvdPkFromHl:sum(packetBytes) 0
attr interpolationmode none
attr source packetReceivedFromUpper
attr title "packets received from higher layer, sum(packetBytes)"
scalar CNPNet.node[10].lo[0].lo passedUpPk:count 0
attr interpolationmode none
attr source packetSentToUpper
attr title "packets passed to higher layer, count"
scalar CNPNet.node[10].lo[0].lo passedUpPk:sum(packetBytes) 0
attr interpolationmode none
attr source packetSentToUpper
attr title "packets passed to higher layer, sum(packetBytes)"
scalar CNPNet.node[10].ipv6.neighbourDiscovery startDad:count 0
attr title "DAD started, count"
scalar CNPNet.node[10].udp packetReceived:count 0
attr interpolationmode none
attr source packetReceived
attr title "packets received, count"
scalar CNPNet.node[10].udp packetReceived:sum(packetBytes) 0
attr interpolationmode none
attr source packetReceived
attr title "packets received, sum(packetBytes)"
scalar CNPNet.node[10].udp packetSent:count 550
attr interpolationmode none
attr source packetSent
attr title "packets sent, count"
scalar CNPNet.node[10].udp packetSent:sum(packetBytes) 554400
attr interpolationmode none
attr source packetSent
attr title "packets sent, sum(packetBytes)"
scalar CNPNet.node[10].udp passedUpPk:count 0
attr interpolationmode none
attr source packetSentToUpper
attr title "packets passed up, count"
scalar CNPNet.node[10].udp droppedPkWrongPort:count 0
attr interpolationmode none
attr source packetDropReasonIsNoPortFound(packetDropped)
attr title "packets dropped (wrong port), count"
scalar CNPNet.node[10].udp droppedPkBadChecksum:count 0
attr interpolationmode none
attr source packetDropReasonIsIncorrectlyReceived(packetDropped)
attr title "packets dropped (checksum error), count"
scalar CNPNet.node[10].app[0] "packets sent" 550
scalar CNPNet.node[10].app[0] "packets received" 0
scalar CNPNet.node[10].app[0] packetReceived:count 0
attr interpolationmode none
attr source packetReceived
attr title "packets received, count"
scalar CNPNet.node[10].app[0] packetReceived:sum(packetBytes) 0
attr interpolationmode none
attr source packetReceived
attr title "packets received, sum(packetBytes)"
statistic CNPNet.node[10].app[0] rcvdPkLifetime:stats
field count 0
field mean -nan
field stddev -nan
field min -nan
field max -nan
field sum 0
field sqrsum 0
attr interpolationmode none
attr source dataAge(packetReceived)
attr title "received packet lifetime, stats"
attr unit s
scalar CNPNet.node[10].app[0] packetSent:count 550
attr interpolationmode none
attr source packetSent
attr title "packets sent, count"
scalar CNPNet.node[10].app[0] packetSent:sum(packetBytes) 550000
attr interpolationmode none
attr source packetSent
attr title "packets sent, sum(packetBytes)"
scalar CNPNet.node[10].nic.phy80211p busyTime 0.0010529690346084
scalar CNPNet.node[10].nic.mac1609_4 ReceivedUnicastPackets 8
scalar CNPNet.node[10].nic.mac1609_4 ReceivedBroadcasts 37
scalar CNPNet.node[10].nic.mac1609_4 SentPackets 13
scalar CNPNet.node[10].nic.mac1609_4 SentAcknowledgements 0
scalar CNPNet.node[10].nic.mac1609_4 SNIRLostPackets 2
scalar CNPNet.node[10].nic.mac1609_4 RXTXLostPackets 27
scalar CNPNet.node[10].nic.mac1609_4 TotalLostPackets 29
scalar CNPNet.node[10].nic.mac1609_4 DroppedPacketsInMac 0
scalar CNPNet.node[10].nic.mac1609_4 TooLittleTime 0
scalar CNPNet.node[10].nic.mac1609_4 TimesIntoBackoff 13
scalar CNPNet.node[10].nic.mac1609_4 SlotsBackoff 90
scalar CNPNet.node[10].nic.mac1609_4 NumInternalContention 0
scalar CNPNet.node[10].nic.mac1609_4 totalBusyTime 0.059381082722
scalar CNPNet.node[10].veinsmobility startTime 25.1
scalar CNPNet.node[10].veinsmobility totalTime 54.9
scalar CNPNet.node[10].veinsmobility stopTime 80
scalar CNPNet.node[10].veinsmobility minSpeed 0.47656952930265
scalar CNPNet.node[10].veinsmobility maxSpeed 13.899908162456
scalar CNPNet.node[10].veinsmobility totalDistance 711.13531238775
scalar CNPNet.node[10].veinsmobility totalCO2Emission 192.33417279562
scalar CNPNet.node[11].lo[0].lo rcvdPkFromHl:count 0
attr interpolationmode none
attr source packetReceivedFromUpper
attr title "packets received from higher layer, count"
scalar CNPNet.node[11].lo[0].lo rcvdPkFromHl:sum(packetBytes) 0
attr interpolationmode none
attr source packetReceivedFromUpper
attr title "packets received from higher layer, sum(packetBytes)"
scalar CNPNet.node[11].lo[0].lo passedUpPk:count 0
attr interpolationmode none
attr source packetSentToUpper
attr title "packets passed to higher layer, count"
scalar CNPNet.node[11].lo[0].lo passedUpPk:sum(packetBytes) 0
attr interpolationmode none
attr source packetSentToUpper
attr title "packets passed to higher layer, sum(packetBytes)"
scalar CNPNet.node[11].ipv6.neighbourDiscovery startDad:count 0
attr title "DAD started, count"
scalar CNPNet.node[11].udp packetReceived:count 0
attr interpolationmode none
attr source packetReceived
attr title "packets received, count"
scalar CNPNet.node[11].udp packetReceived:sum(packetBytes) 0
attr interpolationmode none
attr source packetReceived
attr title "packets received, sum(packetBytes)"
scalar CNPNet.node[11].udp packetSent:count 525
attr interpolationmode none
attr source packetSent
attr title "packets sent, count"
scalar CNPNet.node[11].udp packetSent:sum(packetBytes) 529200
attr interpolationmode none
attr source packetSent
attr title "packets sent, sum(packetBytes)"
scalar CNPNet.node[11].udp passedUpPk:count 0
attr interpolationmode none
attr source packetSentToUpper
attr title "packets passed up, count"
scalar CNPNet.node[11].udp droppedPkWrongPort:count 0
attr interpolationmode none
attr source packetDropReasonIsNoPortFound(packetDropped)
attr title "packets dropped (wrong port), count"
scalar CNPNet.node[11].udp droppedPkBadChecksum:count 0
attr interpolationmode none
attr source packetDropReasonIsIncorrectlyReceived(packetDropped)
attr title "packets dropped (checksum error), count"
scalar CNPNet.node[11].app[0] "packets sent" 525
scalar CNPNet.node[11].app[0] "packets received" 0
scalar CNPNet.node[11].app[0] packetReceived:count 0
attr interpolationmode none
attr source packetReceived
attr title "packets received, count"
scalar CNPNet.node[11].app[0] packetReceived:sum(packetBytes) 0
attr interpolationmode none
attr source packetReceived
attr title "packets received, sum(packetBytes)"
statistic CNPNet.node[11].app[0] rcvdPkLifetime:stats
field count 0
field mean -nan
field stddev -nan
field min -nan
field max -nan
field sum 0
field sqrsum 0
attr interpolationmode none
attr source dataAge(packetReceived)
attr title "received packet lifetime, stats"
attr unit s
scalar CNPNet.node[11].app[0] packetSent:count 525
attr interpolationmode none
attr source packetSent
attr title "packets sent, count"
scalar CNPNet.node[11].app[0] packetSent:sum(packetBytes) 525000
attr interpolationmode none
attr source packetSent
attr title "packets sent, sum(packetBytes)"
scalar CNPNet.node[11].nic.phy80211p busyTime 0.0011007633587786
scalar CNPNet.node[11].nic.mac1609_4 ReceivedUnicastPackets 7
scalar CNPNet.node[11].nic.mac1609_4 ReceivedBroadcasts 35
scalar CNPNet.node[11].nic.mac1609_4 SentPackets 12
scalar CNPNet.node[11].nic.mac1609_4 SentAcknowledgements 0
scalar CNPNet.node[11].nic.mac1609_4 SNIRLostPackets 2
scalar CNPNet.node[11].nic.mac1609_4 RXTXLostPackets 27
scalar CNPNet.node[11].nic.mac1609_4 TotalLostPackets 29
scalar CNPNet.node[11].nic.mac1609_4 DroppedPacketsInMac 0
scalar CNPNet.node[11].nic.mac1609_4 TooLittleTime 0
scalar CNPNet.node[11].nic.mac1609_4 TimesIntoBackoff 12
scalar CNPNet.node[11].nic.mac1609_4 SlotsBackoff 93
scalar CNPNet.node[11].nic.mac1609_4 NumInternalContention 0
scalar CNPNet.node[11].nic.mac1609_4 totalBusyTime 0.059108075014
scalar CNPNet.node[11].veinsmobility startTime 27.6
scalar CNPNet.node[11].veinsmobility totalTime 52.4
scalar CNPNet.node[11].veinsmobility stopTime 80
scalar CNPNet.node[11].veinsmobility minSpeed 0.48181875219452
scalar CNPNet.node[11].veinsmobility maxSpeed 13.89972095422
scalar CNPNet.node[11].veinsmobility totalDistance 700.93002336047
scalar CNPNet.node[11].veinsmobility totalCO2Emission 178.02706186252
scalar CNPNet.node[12].lo[0].lo rcvdPkFromHl:count 0
attr interpolationmode none
attr source packetReceivedFromUpper
attr title "packets received from higher layer, count"
scalar CNPNet.node[12].lo[0].lo rcvdPkFromHl:sum(packetBytes) 0
attr interpolationmode none
attr source packetReceivedFromUpper
attr title "packets received from higher layer, sum(packetBytes)"
scalar CNPNet.node[12].lo[0].lo passedUpPk:count 0
attr interpolationmode none
attr source packetSentToUpper
attr title "packets passed to higher layer, count"
scalar CNPNet.node[12].lo[0].lo passedUpPk:sum(packetBytes) 0
attr interpolationmode none
attr source packetSentToUpper
attr title "packets passed to higher layer, sum(packetBytes)"
scalar CNPNet.node[12].ipv6.neighbourDiscovery startDad:count 0
attr title "DAD started, count"
scalar CNPNet.node[12].udp packetReceived:count 0
attr interpolationmode none
attr source packetReceived
attr title "packets received, count"
scalar CNPNet.node[12].udp packetReceived:sum(packetBytes) 0
attr interpolationmode none
attr source packetReceived
attr title "packets received, sum(packetBytes)"
scalar CNPNet.node[12].udp packetSent:count 500
attr interpolationmode none
attr source packetSent
attr title "packets sent, count"
scalar CNPNet.node[12].udp packetSent:sum(packetBytes) 504000
attr interpolationmode none
attr source packetSent
attr title "packets sent, sum(packetBytes)"
scalar CNPNet.node[12].udp passedUpPk:count 0
attr interpolationmode none
attr source packetSentToUpper
attr title "packets passed up, count"
scalar CNPNet.node[12].udp droppedPkWrongPort:count 0
attr interpolationmode none
attr source packetDropReasonIsNoPortFound(packetDropped)
attr title "packets dropped (wrong port), count"
scalar CNPNet.node[12].udp droppedPkBadChecksum:count 0
attr interpolationmode none
attr source packetDropReasonIsIncorrectlyReceived(packetDropped)
attr title "packets dropped (checksum error), count"
scalar CNPNet.node[12].app[0] "packets sent" 500
scalar CNPNet.node[12].app[0] "packets received" 0
scalar CNPNet.node[12].app[0] packetReceived:count 0
attr interpolationmode none
attr source packetReceived
attr title "packets received, count"
scalar CNPNet.node[12].app[0] packetReceived:sum(packetBytes) 0
attr interpolationmode none
attr source packetReceived
attr title "packets received, sum(packetBytes)"
statistic CNPNet.node[12].app[0] rcvdPkLifetime:stats
field count 0
field mean -nan
field stddev -nan
field min -nan
field max -nan
field sum 0
field sqrsum 0
attr interpolationmode none
attr source dataAge(packetReceived)
attr title "received packet lifetime, stats"
attr unit s
scalar CNPNet.node[12].app[0] packetSent:count 500
attr interpolationmode none
attr source packetSent
attr title "packets sent, count"
scalar CNPNet.node[12].app[0] packetSent:sum(packetBytes) 500000
attr interpolationmode none
attr source packetSent
attr title "packets sent, sum(packetBytes)"
scalar CNPNet.node[12].nic.phy80211p busyTime 0.0011527054108216
scalar CNPNet.node[12].nic.mac1609_4 ReceivedUnicastPackets 7
scalar CNPNet.node[12].nic.mac1609_4 ReceivedBroadcasts 35
scalar CNPNet.node[12].nic.mac1609_4 SentPackets 11
scalar CNPNet.node[12].nic.mac1609_4 SentAcknowledgements 0
scalar CNPNet.node[12].nic.mac1609_4 SNIRLostPackets 0
scalar CNPNet.node[12].nic.mac1609_4 RXTXLostPackets 25
scalar CNPNet.node[12].nic.mac1609_4 TotalLostPackets 25
scalar CNPNet.node[12].nic.mac1609_4 DroppedPacketsInMac 0
scalar CNPNet.node[12].nic.mac1609_4 TooLittleTime 0
scalar CNPNet.node[12].nic.mac1609_4 TimesIntoBackoff 12
scalar CNPNet.node[12].nic.mac1609_4 SlotsBackoff 79
scalar CNPNet.node[12].nic.mac1609_4 NumInternalContention 0
scalar CNPNet.node[12].nic.mac1609_4 totalBusyTime 0.059107356216
scalar CNPNet.node[12].veinsmobility startTime 30.1
scalar CNPNet.node[12].veinsmobility totalTime 49.9
scalar CNPNet.node[12].veinsmobility stopTime 80
scalar CNPNet.node[12].veinsmobility minSpeed 0.47986840361846
scalar CNPNet.node[12].veinsmobility maxSpeed 13.899820759811
scalar CNPNet.node[12].veinsmobility totalDistance 625.85427204541
scalar CNPNet.node[12].veinsmobility totalCO2Emission 177.52178503682
scalar CNPNet.node[13].lo[0].lo rcvdPkFromHl:count 0
attr interpolationmode none
attr source packetReceivedFromUpper
attr title "packets received from higher layer, count"
scalar CNPNet.node[13].lo[0].lo rcvdPkFromHl:sum(packetBytes) 0
attr interpolationmode none
attr source packetReceivedFromUpper
attr title "packets received from higher layer, sum(packetBytes)"
scalar CNPNet.node[13].lo[0].lo passedUpPk:count 0
attr interpolationmode none
attr source packetSentToUpper
attr title "packets passed to higher layer, count"
scalar CNPNet.node[13].lo[0].lo passedUpPk:sum(packetBytes) 0
attr interpolationmode none
attr source packetSentToUpper
attr title "packets passed to higher layer, sum(packetBytes)"
scalar CNPNet.node[13].ipv6.neighbourDiscovery startDad:count 0
attr title "DAD started, count"
scalar CNPNet.node[13].udp packetReceived:count 0
attr interpolationmode none
attr source packetReceived
attr title "packets received, count"
scalar CNPNet.node[13].udp packetReceived:sum(packetBytes) 0
attr interpolationmode none
attr source packetReceived
attr title "packets received, sum(packetBytes)"
scalar CNPNet.node[13].udp packetSent:count 475
attr interpolationmode none
attr source packetSent
attr title "packets sent, count"
scalar CNPNet.node[13].udp packetSent:sum(packetBytes) 478800
attr interpolationmode none
attr source packetSent
attr title "packets sent, sum(packetBytes)"
scalar CNPNet.node[13].udp passedUpPk:count 0
attr interpolationmode none
attr source packetSentToUpper
attr title "packets passed up, count"
scalar CNPNet.node[13].udp droppedPkWrongPort:count 0
attr interpolationmode none
attr source packetDropReasonIsNoPortFound(packetDropped)
attr title "packets dropped (wrong port), count"
scalar CNPNet.node[13].udp droppedPkBadChecksum:count 0
attr interpolationmode none
attr source packetDropReasonIsIncorrectlyReceived(packetDropped)
attr title "packets dropped (checksum error), count"
scalar CNPNet.node[13].app[0] "packets sent" 475
scalar CNPNet.node[13].app[0] "packets received" 0
scalar CNPNet.node[13].app[0] packetReceived:count 0
attr interpolationmode none
attr source packetReceived
attr title "packets received, count"
scalar CNPNet.node[13].app[0] packetReceived:sum(packetBytes) 0
attr interpolationmode none
attr source packetReceived
attr title "packets received, sum(packetBytes)"
statistic CNPNet.node[13].app[0] rcvdPkLifetime:stats
field count 0
field mean -nan
field stddev -nan
field min -nan
field max -nan
field sum 0
field sqrsum 0
attr interpolationmode none
attr source dataAge(packetReceived)
attr title "received packet lifetime, stats"
attr unit s
scalar CNPNet.node[13].app[0] packetSent:count 475
attr interpolationmode none
attr source packetSent
attr title "packets sent, count"
scalar CNPNet.node[13].app[0] packetSent:sum(packetBytes) 475000
attr interpolationmode none
attr source packetSent
attr title "packets sent, sum(packetBytes)"
scalar CNPNet.node[13].nic.phy80211p busyTime 0.0011437974683544
scalar CNPNet.node[13].nic.mac1609_4 ReceivedUnicastPackets 6
scalar CNPNet.node[13].nic.mac1609_4 ReceivedBroadcasts 33
scalar CNPNet.node[13].nic.mac1609_4 SentPackets 10
scalar CNPNet.node[13].nic.mac1609_4 SentAcknowledgements 0
scalar CNPNet.node[13].nic.mac1609_4 SNIRLostPackets 0
scalar CNPNet.node[13].nic.mac1609_4 RXTXLostPackets 25
scalar CNPNet.node[13].nic.mac1609_4 TotalLostPackets 25
scalar CNPNet.node[13].nic.mac1609_4 DroppedPacketsInMac 0
scalar CNPNet.node[13].nic.mac1609_4 TooLittleTime 0
scalar CNPNet.node[13].nic.mac1609_4 TimesIntoBackoff 10
scalar CNPNet.node[13].nic.mac1609_4 SlotsBackoff 80
scalar CNPNet.node[13].nic.mac1609_4 NumInternalContention 0
scalar CNPNet.node[13].nic.mac1609_4 totalBusyTime 0.055658310617
scalar CNPNet.node[13].veinsmobility startTime 32.6
scalar CNPNet.node[13].veinsmobility totalTime 47.4
scalar CNPNet.node[13].veinsmobility stopTime 80
scalar CNPNet.node[13].veinsmobility minSpeed 0.49743884295458
scalar CNPNet.node[13].veinsmobility maxSpeed 13.899370481761
scalar CNPNet.node[13].veinsmobility totalDistance 620.65319091476
scalar CNPNet.node[13].veinsmobility totalCO2Emission 172.70813736783
scalar CNPNet.node[14].lo[0].lo rcvdPkFromHl:count 0
attr interpolationmode none
attr source packetReceivedFromUpper
attr title "packets received from higher layer, count"
scalar CNPNet.node[14].lo[0].lo rcvdPkFromHl:sum(packetBytes) 0
attr interpolationmode none
attr source packetReceivedFromUpper
attr title "packets received from higher layer, sum(packetBytes)"
scalar CNPNet.node[14].lo[0].lo passedUpPk:count 0
attr interpolationmode none
attr source packetSentToUpper
attr title "packets passed to higher layer, count"
scalar CNPNet.node[14].lo[0].lo passedUpPk:sum(packetBytes) 0
attr interpolationmode none
attr source packetSentToUpper
attr title "packets passed to higher layer, sum(packetBytes)"
scalar CNPNet.node[14].ipv6.neighbourDiscovery startDad:count 0
attr title "DAD started, count"
scalar CNPNet.node[14].udp packetReceived:count 0
attr interpolationmode none
attr source packetReceived
attr title "packets received, count"
scalar CNPNet.node[14].udp packetReceived:sum(packetBytes) 0
attr interpolationmode none
attr source packetReceived
attr title "packets received, sum(packetBytes)"
scalar CNPNet.node[14].udp packetSent:count 450
attr interpolationmode none
attr source packetSent
attr title "packets sent, count"
scalar CNPNet.node[14].udp packetSent:sum(packetBytes) 453600
attr interpolationmode none
attr source packetSent
attr title "packets sent, sum(packetBytes)"
scalar CNPNet.node[14].udp passedUpPk:count 0
attr interpolationmode none
attr source packetSentToUpper
attr title "packets passed up, count"
scalar CNPNet.node[14].udp droppedPkWrongPort:count 0
attr interpolationmode none
attr source packetDropReasonIsNoPortFound(packetDropped)
attr title "packets dropped (wrong port), count"
scalar CNPNet.node[14].udp droppedPkBadChecksum:count 0
attr interpolationmode none
attr source packetDropReasonIsIncorrectlyReceived(packetDropped)
attr title "packets dropped (checksum error), count"
scalar CNPNet.node[14].app[0] "packets sent" 450
scalar CNPNet.node[14].app[0] "packets received" 0
scalar CNPNet.node[14].app[0] packetReceived:count 0
attr interpolationmode none
attr source packetReceived
attr title "packets received, count"
scalar CNPNet.node[14].app[0] packetReceived:sum(packetBytes) 0
attr interpolationmode none
attr source packetReceived
attr title "packets received, sum(packetBytes)"
statistic CNPNet.node[14].app[0] rcvdPkLifetime:stats
field count 0
field mean -nan
field stddev -nan
field min -nan
field max -nan
field sum 0
field sqrsum 0
attr interpolationmode none
attr source dataAge(packetReceived)
attr title "received packet lifetime, stats"
attr unit s
scalar CNPNet.node[14].app[0] packetSent:count 450
attr interpolationmode none
attr source packetSent
attr title "packets sent, count"
scalar CNPNet.node[14].app[0] packetSent:sum(packetBytes) 450000
attr interpolationmode none
attr source packetSent
attr title "packets sent, sum(packetBytes)"
scalar CNPNet.node[14].nic.phy80211p busyTime 0.0011853897550111
scalar CNPNet.node[14].nic.mac1609_4 ReceivedUnicastPackets 6
scalar CNPNet.node[14].nic.mac1609_4 ReceivedBroadcasts 31
scalar CNPNet.node[14].nic.mac1609_4 SentPackets 10
scalar CNPNet.node[14].nic.mac1609_4 SentAcknowledgements 0
scalar CNPNet.node[14].nic.mac1609_4 SNIRLostPackets 0
scalar CNPNet.node[14].nic.mac1609_4 RXTXLostPackets 25
scalar CNPNet.node[14].nic.mac1609_4 TotalLostPackets 25
scalar CNPNet.node[14].nic.mac1609_4 DroppedPacketsInMac 0
scalar CNPNet.node[14].nic.mac1609_4 TooLittleTime 0
scalar CNPNet.node[14].nic.mac1609_4 TimesIntoBackoff 11
scalar CNPNet.node[14].nic.mac1609_4 SlotsBackoff 72
scalar CNPNet.node[14].nic.mac1609_4 NumInternalContention 0
scalar CNPNet.node[14].nic.mac1609_4 totalBusyTime 0.054666006912
scalar CNPNet.node[14].veinsmobility startTime 35.1
scalar CNPNet.node[14].veinsmobility totalTime 44.9
scalar CNPNet.node[14].veinsmobility stopTime 80
scalar CNPNet.node[14].veinsmobility minSpeed 0.48669185948092
scalar CNPNet.node[14].veinsmobility maxSpeed 13.899981886649
scalar CNPNet.node[14].veinsmobility totalDistance 597.77951995259
scalar CNPNet.node[14].veinsmobility totalCO2Emission 155.39653854934
scalar CNPNet.node[15].lo[0].lo rcvdPkFromHl:count 0
attr interpolationmode none
attr source packetReceivedFromUpper
attr title "packets received from higher layer, count"
scalar CNPNet.node[15].lo[0].lo rcvdPkFromHl:sum(packetBytes) 0
attr interpolationmode none
attr source packetReceivedFromUpper
attr title "packets received from higher layer, sum(packetBytes)"
scalar CNPNet.node[15].lo[0].lo passedUpPk:count 0
attr interpolationmode none
attr source packetSentToUpper
attr title "packets passed to higher layer, count"
scalar CNPNet.node[15].lo[0].lo passedUpPk:sum(packetBytes) 0
attr interpolationmode none
attr source packetSentToUpper
attr title "packets passed to higher layer, sum(packetBytes)"
scalar CNPNet.node[15].ipv6.neighbourDiscovery startDad:count 0
attr title "DAD started, count"
scalar CNPNet.node[15].udp packetReceived:count 0
attr interpolationmode none
attr source packetReceived
attr title "packets received, count"
scalar CNPNet.node[15].udp packetReceived:sum(packetBytes) 0
attr interpolationmode none
attr source packetReceived
attr title "packets received, sum(packetBytes)"
scalar CNPNet.node[15].udp packetSent:count 425
attr interpolationmode none
attr source packetSent
attr title "packets sent, count"
scalar CNPNet.node[15].udp packetSent:sum(packetBytes) 428400
attr interpolationmode none
attr source packetSent
attr title "packets sent, sum(packetBytes)"
scalar CNPNet.node[15].udp passedUpPk:count 0
attr interpolationmode none
attr source packetSentToUpper
attr title "packets passed up, count"
scalar CNPNet.node[15].udp droppedPkWrongPort:count 0
attr interpolationmode none
attr source packetDropReasonIsNoPortFound(packetDropped)
attr title "packets dropped (wrong port), count"
scalar CNPNet.node[15].udp droppedPkBadChecksum:count 0
attr interpolationmode none
attr source packetDropReasonIsIncorrectlyReceived(packetDropped)
attr title "packets dropped (checksum error), count"
scalar CNPNet.node[15].app[0] "packets sent" 425
scalar CNPNet.node[15].app[0] "packets received" 0
scalar CNPNet.node[15].app[0] packetReceived:count 0
attr interpolationmode none
attr source packetReceived
attr title "packets received, count"
scalar CNPNet.node[15].app[0] packetReceived:sum(packetBytes) 0
attr interpolationmode none
attr source packetReceived
attr title "packets received, sum(packetBytes)"
statistic CNPNet.node[15].app[0] rcvdPkLifetime:stats
field count 0
field mean -nan
field stddev -nan
field min -nan
field max -nan
field sum 0
field sqrsum 0
attr interpolationmode none
attr source dataAge(packetReceived)
attr title "received packet lifetime, stats"
attr unit s
scalar CNPNet.node[15].app[0] packetSent:count 425
attr interpolationmode none
attr source packetSent
attr title "packets sent, count"
scalar CNPNet.node[15].app[0] packetSent:sum(packetBytes) 425000
attr interpolationmode none
attr source packetSent
attr title "packets sent, sum(packetBytes)"
scalar CNPNet.node[15].nic.phy80211p busyTime 0.0012369811320755
scalar CNPNet.node[15].nic.mac1609_4 ReceivedUnicastPackets 5
scalar CNPNet.node[15].nic.mac1609_4 ReceivedBroadcasts 32
scalar CNPNet.node[15].nic.mac1609_4 SentPackets 9
scalar CNPNet.node[15].nic.mac1609_4 SentAcknowledgements 0
scalar CNPNet.node[15].nic.mac1609_4 SNIRLostPackets 0
scalar CNPNet.node[15].nic.mac1609_4 RXTXLostPackets 25
scalar CNPNet.node[15].nic.mac1609_4 TotalLostPackets 25
scalar CNPNet.node[15].nic.mac1609_4 DroppedPacketsInMac 0
scalar CNPNet.node[15].nic.mac1609_4 TooLittleTime 0
scalar CNPNet.node[15].nic.mac1609_4 TimesIntoBackoff 9
scalar CNPNet.node[15].nic.mac1609_4 SlotsBackoff 67
scalar CNPNet.node[15].nic.mac1609_4 NumInternalContention 0
scalar CNPNet.node[15].nic.mac1609_4 totalBusyTime 0.053745135721
scalar CNPNet.node[15].veinsmobility startTime 37.6
scalar CNPNet.node[15].veinsmobility totalTime 42.4
scalar CNPNet.node[15].veinsmobility stopTime 80
scalar CNPNet.node[15].veinsmobility minSpeed 0.47950010740315
scalar CNPNet.node[15].veinsmobility maxSpeed 13.899981575762
scalar CNPNet.node[15].veinsmobility totalDistance 524.08297545954
scalar CNPNet.node[15].veinsmobility totalCO2Emission 155.10115605434
scalar CNPNet.node[16].lo[0].lo rcvdPkFromHl:count 0
attr interpolationmode none
attr source packetReceivedFromUpper
attr title "packets received from higher layer, count"
scalar CNPNet.node[16].lo[0].lo rcvdPkFromHl:sum(packetBytes) 0
attr interpolationmode none
attr source packetReceivedFromUpper
attr title "packets received from higher layer, sum(packetBytes)"
scalar CNPNet.node[16].lo[0].lo passedUpPk:count 0
attr interpolationmode none
attr source packetSentToUpper
attr title "packets passed to higher layer, count"
scalar CNPNet.node[16].lo[0].lo passedUpPk:sum(packetBytes) 0
attr interpolationmode none
attr source packetSentToUpper
attr title "packets passed to higher layer, sum(packetBytes)"
scalar CNPNet.node[16].ipv6.neighbourDiscovery startDad:count 0
attr title "DAD started, count"
scalar CNPNet.node[16].udp packetReceived:count 0
attr interpolationmode none
attr source packetReceived
attr title "packets received, count"
scalar CNPNet.node[16].udp packetReceived:sum(packetBytes) 0
attr interpolationmode none
attr source packetReceived
attr title "packets received, sum(packetBytes)"
scalar CNPNet.node[16].udp packetSent:count 400
attr interpolationmode none
attr source packetSent
attr title "packets sent, count"
scalar CNPNet.node[16].udp packetSent:sum(packetBytes) 403200
attr interpolationmode none
attr source packetSent
attr title "packets sent, sum(packetBytes)"
scalar CNPNet.node[16].udp passedUpPk:count 0
attr interpolationmode none
attr source packetSentToUpper
attr title "packets passed up, count"
scalar CNPNet.node[16].udp droppedPkWrongPort:count 0
attr interpolationmode none
attr source packetDropReasonIsNoPortFound(packetDropped)
attr title "packets dropped (wrong port), count"
scalar CNPNet.node[16].udp droppedPkBadChecksum:count 0
attr interpolationmode none
attr source packetDropReasonIsIncorrectlyReceived(packetDropped)
attr title "packets dropped (checksum error), count"
scalar CNPNet.node[16].app[0] "packets sent" 400
scalar CNPNet.node[16].app[0] "packets received" 0
scalar CNPNet.node[16].app[0] packetReceived:count 0
attr interpolationmode none
attr source packetReceived
attr title "packets received, count"
scalar CNPNet.node[16].app[0] packetReceived:sum(packetBytes) 0
attr interpolationmode none
attr source packetReceived
attr title "packets received, sum(packetBytes)"
statistic CNPNet.node[16].app[0] rcvdPkLifetime:stats
field count 0
field mean -nan
field stddev -nan
field min -nan
field max -nan
field sum 0
field sqrsum 0
attr interpolationmode none
attr source dataAge(packetReceived)
attr title "received packet lifetime, stats"
attr unit s
scalar CNPNet.node[16].app[0] packetSent:count 400
attr interpolationmode none
attr source packetSent
attr title "packets sent, count"
scalar CNPNet.node[16].app[0] packetSent:sum(packetBytes) 400000
attr interpolationmode none
attr source packetSent
attr title "packets sent, sum(packetBytes)"
scalar CNPNet.node[16].nic.phy80211p busyTime 0.0011991979949875
scalar CNPNet.node[16].nic.mac1609_4 ReceivedUnicastPackets 4
scalar CNPNet.node[16].nic.mac1609_4 ReceivedBroadcasts 30
scalar CNPNet.node[16].nic.mac1609_4 SentPackets 8
scalar CNPNet.node[16].nic.mac1609_4 SentAcknowledgements 0
scalar CNPNet.node[16].nic.mac1609_4 SNIRLostPackets 0
scalar CNPNet.node[16].nic.mac1609_4 RXTXLostPackets 25
scalar CNPNet.node[16].nic.mac1609_4 TotalLostPackets 25
scalar CNPNet.node[16].nic.mac1609_4 DroppedPacketsInMac 0
scalar CNPNet.node[16].nic.mac1609_4 TooLittleTime 0
scalar CNPNet.node[16].nic.mac1609_4 TimesIntoBackoff 9
scalar CNPNet.node[16].nic.mac1609_4 SlotsBackoff 65
scalar CNPNet.node[16].nic.mac1609_4 NumInternalContention 0
scalar CNPNet.node[16].nic.mac1609_4 totalBusyTime 0.049000306592
scalar CNPNet.node[16].veinsmobility startTime 40.1
scalar CNPNet.node[16].veinsmobility totalTime 39.9
scalar CNPNet.node[16].veinsmobility stopTime 80
scalar CNPNet.node[16].veinsmobility minSpeed 0.49230314760935
scalar CNPNet.node[16].veinsmobility maxSpeed 13.898440558149
scalar CNPNet.node[16].veinsmobility totalDistance 517.27499611551
scalar CNPNet.node[16].veinsmobility totalCO2Emission 145.91288113065
scalar CNPNet.node[17].lo[0].lo rcvdPkFromHl:count 0
attr interpolationmode none
attr source packetReceivedFromUpper
attr title "packets received from higher layer, count"
scalar CNPNet.node[17].lo[0].lo rcvdPkFromHl:sum(packetBytes) 0
attr interpolationmode none
attr source packetReceivedFromUpper
attr title "packets received from higher layer, sum(packetBytes)"
scalar CNPNet.node[17].lo[0].lo passedUpPk:count 0
attr interpolationmode none
attr source packetSentToUpper
attr title "packets passed to higher layer, count"
scalar CNPNet.node[17].lo[0].lo passedUpPk:sum(packetBytes) 0
attr interpolationmode none
attr source packetSentToUpper
attr title "packets passed to higher layer, sum(packetBytes)"
scalar CNPNet.node[17].ipv6.neighbourDiscovery startDad:count 0
attr title "DAD started, count"
scalar CNPNet.node[17].udp packetReceived:count 0
attr interpolationmode none
attr source packetReceived
attr title "packets received, count"
scalar CNPNet.node[17].udp packetReceived:sum(packetBytes) 0
attr interpolationmode none
attr source packetReceived
attr title "packets received, sum(packetBytes)"
scalar CNPNet.node[17].udp packetSent:count 375
attr interpolationmode none
attr source packetSent
attr title "packets sent, count"
scalar CNPNet.node[17].udp packetSent:sum(packetBytes) 378000
attr interpolationmode none
attr source packetSent
attr title "packets sent, sum(packetBytes)"
scalar CNPNet.node[17].udp passedUpPk:count 0
attr interpolationmode none
attr source packetSentToUpper
attr title "packets passed up, count"
scalar CNPNet.node[17].udp droppedPkWrongPort:count 0
attr interpolationmode none
attr source packetDropReasonIsNoPortFound(packetDropped)
attr title "packets dropped (wrong port), count"
scalar CNPNet.node[17].udp droppedPkBadChecksum:count 0
attr interpolationmode none
attr source packetDropReasonIsIncorrectlyReceived(packetDropped)
attr title "packets dropped (checksum error), count"
scalar CNPNet.node[17].app[0] "packets sent" 375
scalar CNPNet.node[17].app[0] "packets received" 0
scalar CNPNet.node[17].app[0] packetReceived:count 0
attr interpolationmode none
attr source packetReceived
attr title "packets received, count"
scalar CNPNet.node[17].app[0] packetReceived:sum(packetBytes) 0
attr interpolationmode none
attr source packetReceived
attr title "packets received, sum(packetBytes)"
statistic CNPNet.node[17].app[0] rcvdPkLifetime:stats
field count 0
field mean -nan
field stddev -nan
field min -nan
field max -nan
field sum 0
field sqrsum 0
attr interpolationmode none
attr source dataAge(packetReceived)
attr title "received packet lifetime, stats"
attr unit s
scalar CNPNet.node[17].app[0] packetSent:count 375
attr interpolationmode none
attr source packetSent
attr title "packets sent, count"
scalar CNPNet.node[17].app[0] packetSent:sum(packetBytes) 375000
attr interpolationmode none
attr source packetSent
attr title "packets sent, sum(packetBytes)"
scalar CNPNet.node[17].nic.phy80211p busyTime 0.0011912299465241
scalar CNPNet.node[17].nic.mac1609_4 ReceivedUnicastPackets 9
scalar CNPNet.node[17].nic.mac1609_4 ReceivedBroadcasts 28
scalar CNPNet.node[17].nic.mac1609_4 SentPackets 13
scalar CNPNet.node[17].nic.mac1609_4 SentAcknowledgements 0
scalar CNPNet.node[17].nic.mac1609_4 SNIRLostPackets 0
scalar CNPNet.node[17].nic.mac1609_4 RXTXLostPackets 25
scalar CNPNet.node[17].nic.mac1609_4 TotalLostPackets 25
scalar CNPNet.node[17].nic.mac1609_4 DroppedPacketsInMac 0
scalar CNPNet.node[17].nic.mac1609_4 TooLittleTime 0
scalar CNPNet.node[17].nic.mac1609_4 TimesIntoBackoff 14
scalar CNPNet.node[17].nic.mac1609_4 SlotsBackoff 107
scalar CNPNet.node[17].nic.mac1609_4 NumInternalContention 0
scalar CNPNet.node[17].nic.mac1609_4 totalBusyTime 0.046429002307
scalar CNPNet.node[17].veinsmobility startTime 42.6
scalar CNPNet.node[17].veinsmobility totalTime 37.4
scalar CNPNet.node[17].veinsmobility stopTime 80
scalar CNPNet.node[17].veinsmobility minSpeed 0.48560617900803
scalar CNPNet.node[17].veinsmobility maxSpeed 13.89929826305
scalar CNPNet.node[17].veinsmobility totalDistance 494.84658338224
scalar CNPNet.node[17].veinsmobility totalCO2Emission 133.00924692599
scalar CNPNet.node[18].lo[0].lo rcvdPkFromHl:count 0
attr interpolationmode none
attr source packetReceivedFromUpper
attr title "packets received from higher layer, count"
scalar CNPNet.node[18].lo[0].lo rcvdPkFromHl:sum(packetBytes) 0
attr interpolationmode none
attr source packetReceivedFromUpper
attr title "packets received from higher layer, sum(packetBytes)"
scalar CNPNet.node[18].lo[0].lo passedUpPk:count 0
attr interpolationmode none
attr source packetSentToUpper
attr title "packets passed to higher layer, count"
scalar CNPNet.node[18].lo[0].lo passedUpPk:sum(packetBytes) 0
attr interpolationmode none
attr source packetSentToUpper
attr title "packets passed to higher layer, sum(packetBytes)"
scalar CNPNet.node[18].ipv6.neighbourDiscovery startDad:count 0
attr title "DAD started, count"
scalar CNPNet.node[18].udp packetReceived:count 0
attr interpolationmode none
attr source packetReceived
attr title "packets received, count"
scalar CNPNet.node[18].udp packetReceived:sum(packetBytes) 0
attr interpolationmode none
attr source packetReceived
attr title "packets received, sum(packetBytes)"
scalar CNPNet.node[18].udp packetSent:count 350
attr interpolationmode none
attr source packetSent
attr title "packets sent, count"
scalar CNPNet.node[18].udp packetSent:sum(packetBytes) 352800
attr interpolationmode none
attr source packetSent
attr title "packets sent, sum(packetBytes)"
scalar CNPNet.node[18].udp passedUpPk:count 0
attr interpolationmode none
attr source packetSentToUpper
attr title "packets passed up, count"
scalar CNPNet.node[18].udp droppedPkWrongPort:count 0
attr interpolationmode none
attr source packetDropReasonIsNoPortFound(packetDropped)
attr title "packets dropped (wrong port), count"
scalar CNPNet.node[18].udp droppedPkBadChecksum:count 0
attr interpolationmode none
attr source packetDropReasonIsIncorrectlyReceived(packetDropped)
attr title "packets dropped (checksum error), count"
scalar CNPNet.node[18].app[0] "packets sent" 350
scalar CNPNet.node[18].app[0] "packets received" 0
scalar CNPNet.node[18].app[0] packetReceived:count 0
attr interpolationmode none
attr source packetReceived
attr title "packets received, count"
scalar CNPNet.node[18].app[0] packetReceived:sum(packetBytes) 0
attr interpolationmode none
attr source packetReceived
attr title "packets received, sum(packetBytes)"
statistic CNPNet.node[18].app[0] rcvdPkLifetime:stats
field count 0
field mean -nan
field stddev -nan
field min -nan
field max -nan
field sum 0
field sqrsum 0
attr interpolationmode none
attr source dataAge(packetReceived)
attr title "received packet lifetime, stats"
attr unit s
scalar CNPNet.node[18].app[0] packetSent:count 350
attr interpolationmode none
attr source packetSent
attr title "packets sent, count"
scalar CNPNet.node[18].app[0] packetSent:sum(packetBytes) 350000
attr interpolationmode none
attr source packetSent
attr title "packets sent, sum(packetBytes)"
scalar CNPNet.node[18].nic.phy80211p busyTime 0.0012550143266476
scalar CNPNet.node[18].nic.mac1609_4 ReceivedUnicastPackets 2
scalar CNPNet.node[18].nic.mac1609_4 ReceivedBroadcasts 28
scalar CNPNet.node[18].nic.mac1609_4 SentPackets 6
scalar CNPNet.node[18].nic.mac1609_4 SentAcknowledgements 0
scalar CNPNet.node[18].nic.mac1609_4 SNIRLostPackets 0
scalar CNPNet.node[18].nic.mac1609_4 RXTXLostPackets 25
scalar CNPNet.node[18].nic.mac1609_4 TotalLostPackets 25
scalar CNPNet.node[18].nic.mac1609_4 DroppedPacketsInMac 0
scalar CNPNet.node[18].nic.mac1609_4 TooLittleTime 0
scalar CNPNet.node[18].nic.mac1609_4 TimesIntoBackoff 7
scalar CNPNet.node[18].nic.mac1609_4 SlotsBackoff 36
scalar CNPNet.node[18].nic.mac1609_4 NumInternalContention 0
scalar CNPNet.node[18].nic.mac1609_4 totalBusyTime 0.044662374746
scalar CNPNet.node[18].veinsmobility startTime 45.1
scalar CNPNet.node[18].veinsmobility totalTime 34.9
scalar CNPNet.node[18].veinsmobility stopTime 80
scalar CNPNet.node[18].veinsmobility minSpeed 0.48314806767157
scalar CNPNet.node[18].veinsmobility maxSpeed 13.89873703206
scalar CNPNet.node[18].veinsmobility totalDistance 420.14603758142
scalar CNPNet.node[18].veinsmobility totalCO2Emission 134.68813701334
scalar CNPNet.node[19].lo[0].lo rcvdPkFromHl:count 0
attr interpolationmode none
attr source packetReceivedFromUpper
attr title "packets received from higher layer, count"
scalar CNPNet.node[19].lo[0].lo rcvdPkFromHl:sum(packetBytes) 0
attr interpolationmode none
attr source packetReceivedFromUpper
attr title "packets received from higher layer, sum(packetBytes)"
scalar CNPNet.node[19].lo[0].lo passedUpPk:count 0
attr interpolationmode none
attr source packetSentToUpper
attr title "packets passed to higher layer, count"
scalar CNPNet.node[19].lo[0].lo passedUpPk:sum(packetBytes) 0
attr interpolationmode none
attr source packetSentToUpper
attr title "packets passed to higher layer, sum(packetBytes)"
scalar CNPNet.node[19].ipv6.neighbourDiscovery startDad:count 0
attr title "DAD started, count"
scalar CNPNet.node[19].udp packetReceived:count 0
attr interpolationmode none
attr source packetReceived
attr title "packets received, count"
scalar CNPNet.node[19].udp packetReceived:sum(packetBytes) 0
attr interpolationmode none
attr source packetReceived
attr title "packets received, sum(packetBytes)"
scalar CNPNet.node[19].udp packetSent:count 325
attr interpolationmode none
attr source packetSent
attr title "packets sent, count"
scalar CNPNet.node[19].udp packetSent:sum(packetBytes) 327600
attr interpolationmode none
attr source packetSent
attr title "packets sent, sum(packetBytes)"
scalar CNPNet.node[19].udp passedUpPk:count 0
attr interpolationmode none
attr source packetSentToUpper
attr title "packets passed up, count"
scalar CNPNet.node[19].udp droppedPkWrongPort:count 0
attr interpolationmode none
attr source packetDropReasonIsNoPortFound(packetDropped)
attr title "packets dropped (wrong port), count"
scalar CNPNet.node[19].udp droppedPkBadChecksum:count 0
attr interpolationmode none
attr source packetDropReasonIsIncorrectlyReceived(packetDropped)
attr title "packets dropped (checksum error), count"
scalar CNPNet.node[19].app[0] "packets sent" 325
scalar CNPNet.node[19].app[0] "packets received" 0
scalar CNPNet.node[19].app[0] packetReceived:count 0
attr interpolationmode none
attr source packetReceived
attr title "packets received, count"
scalar CNPNet.node[19].app[0] packetReceived:sum(packetBytes) 0
attr interpolationmode none
attr source packetReceived
attr title "packets received, sum(packetBytes)"
statistic CNPNet.node[19].app[0] rcvdPkLifetime:stats
field count 0
field mean -nan
field stddev -nan
field min -nan
field max -nan
field sum 0
field sqrsum 0
attr interpolationmode none
attr source dataAge(packetReceived)
attr title "received packet lifetime, stats"
attr unit s
scalar CNPNet.node[19].app[0] packetSent:count 325
attr interpolationmode none
attr source packetSent
attr title "packets sent, count"
scalar CNPNet.node[19].app[0] packetSent:sum(packetBytes) 325000
attr interpolationmode none
attr source packetSent
attr title "packets sent, sum(packetBytes)"
scalar CNPNet.node[19].nic.phy80211p busyTime 0.001258024691358
scalar CNPNet.node[19].nic.mac1609_4 ReceivedUnicastPackets 2
scalar CNPNet.node[19].nic.mac1609_4 ReceivedBroadcasts 27
scalar CNPNet.node[19].nic.mac1609_4 SentPackets 6
scalar CNPNet.node[19].nic.mac1609_4 SentAcknowledgements 0
scalar CNPNet.node[19].nic.mac1609_4 SNIRLostPackets 0
scalar CNPNet.node[19].nic.mac1609_4 RXTXLostPackets 25
scalar CNPNet.node[19].nic.mac1609_4 TotalLostPackets 25
scalar CNPNet.node[19].nic.mac1609_4 DroppedPacketsInMac 0
scalar CNPNet.node[19].nic.mac1609_4 TooLittleTime 0
scalar CNPNet.node[19].nic.mac1609_4 TimesIntoBackoff 6
scalar CNPNet.node[19].nic.mac1609_4 SlotsBackoff 49
scalar CNPNet.node[19].nic.mac1609_4 NumInternalContention 0
scalar CNPNet.node[19].nic.mac1609_4 totalBusyTime 0.041622311657
scalar CNPNet.node[19].veinsmobility startTime 47.6
scalar CNPNet.node[19].veinsmobility totalTime 32.4
scalar CNPNet.node[19].veinsmobility stopTime 80
scalar CNPNet.node[19].veinsmobility minSpeed 0.49300191535731
scalar CNPNet.node[19].veinsmobility maxSpeed 13.898982809542
scalar CNPNet.node[19].veinsmobility totalDistance 414.26040492464
scalar CNPNet.node[19].veinsmobility totalCO2Emission 123.39468582246
scalar CNPNet.node[2].lo[0].lo rcvdPkFromHl:count 0
attr interpolationmode none
attr source packetReceivedFromUpper
attr title "packets received from higher layer, count"
scalar CNPNet.node[2].lo[0].lo rcvdPkFromHl:sum(packetBytes) 0
attr interpolationmode none
attr source packetReceivedFromUpper
attr title "packets received from higher layer, sum(packetBytes)"
scalar CNPNet.node[2].lo[0].lo passedUpPk:count 0
attr interpolationmode none
attr source packetSentToUpper
attr title "packets passed to higher layer, count"
scalar CNPNet.node[2].lo[0].lo passedUpPk:sum(packetBytes) 0
attr interpolationmode none
attr source packetSentToUpper
attr title "packets passed to higher layer, sum(packetBytes)"
scalar CNPNet.node[2].ipv6.neighbourDiscovery startDad:count 0
attr title "DAD started, count"
scalar CNPNet.node[2].udp packetReceived:count 0
attr interpolationmode none
attr source packetReceived
attr title "packets received, count"
scalar CNPNet.node[2].udp packetReceived:sum(packetBytes) 0
attr interpolationmode none
attr source packetReceived
attr title "packets received, sum(packetBytes)"
scalar CNPNet.node[2].udp packetSent:count 0
attr interpolationmode none
attr source packetSent
attr title "packets sent, count"
scalar CNPNet.node[2].udp packetSent:sum(packetBytes) 0
attr interpolationmode none
attr source packetSent
attr title "packets sent, sum(packetBytes)"
scalar CNPNet.node[2].udp passedUpPk:count 0
attr interpolationmode none
attr source packetSentToUpper
attr title "packets passed up, count"
scalar CNPNet.node[2].udp droppedPkWrongPort:count 0
attr interpolationmode none
attr source packetDropReasonIsNoPortFound(packetDropped)
attr title "packets dropped (wrong port), count"
scalar CNPNet.node[2].udp droppedPkBadChecksum:count 0
attr interpolationmode none
attr source packetDropReasonIsIncorrectlyReceived(packetDropped)
attr title "packets dropped (checksum error), count"
scalar CNPNet.node[2].app[0] "packets sent" 0
scalar CNPNet.node[2].app[0] "packets received" 0
scalar CNPNet.node[2].app[0] packetReceived:count 0
attr interpolationmode none
attr source packetReceived
attr title "packets received, count"
scalar CNPNet.node[2].app[0] packetReceived:sum(packetBytes) 0
attr interpolationmode none
attr source packetReceived
attr title "packets received, sum(packetBytes)"
statistic CNPNet.node[2].app[0] rcvdPkLifetime:stats
field count 0
field mean -nan
field stddev -nan
field min -nan
field max -nan
field sum 0
field sqrsum 0
attr interpolationmode none
attr source dataAge(packetReceived)
attr title "received packet lifetime, stats"
attr unit s
scalar CNPNet.node[2].app[0] packetSent:count 0
attr interpolationmode none
attr source packetSent
attr title "packets sent, count"
scalar CNPNet.node[2].app[0] packetSent:sum(packetBytes) 0
attr interpolationmode none
attr source packetSent
attr title "packets sent, sum(packetBytes)"
scalar CNPNet.node[2].nic.phy80211p busyTime 0.00094493991989319
scalar CNPNet.node[2].nic.mac1609_4 ReceivedUnicastPackets 15
scalar CNPNet.node[2].nic.mac1609_4 ReceivedBroadcasts 61
scalar CNPNet.node[2].nic.mac1609_4 SentPackets 19
scalar CNPNet.node[2].nic.mac1609_4 SentAcknowledgements 0
scalar CNPNet.node[2].nic.mac1609_4 SNIRLostPackets 2
scalar CNPNet.node[2].nic.mac1609_4 RXTXLostPackets 25
scalar CNPNet.node[2].nic.mac1609_4 TotalLostPackets 27
scalar CNPNet.node[2].nic.mac1609_4 DroppedPacketsInMac 0
scalar CNPNet.node[2].nic.mac1609_4 TooLittleTime 0
scalar CNPNet.node[2].nic.mac1609_4 TimesIntoBackoff 20
scalar CNPNet.node[2].nic.mac1609_4 SlotsBackoff 135
scalar CNPNet.node[2].nic.mac1609_4 NumInternalContention 0
scalar CNPNet.node[2].nic.mac1609_4 totalBusyTime 0.073379055633
scalar CNPNet.node[2].veinsmobility startTime 5.1
scalar CNPNet.node[2].veinsmobility totalTime 74.9
scalar CNPNet.node[2].veinsmobility stopTime 80
scalar CNPNet.node[2].veinsmobility minSpeed 0
scalar CNPNet.node[2].veinsmobility maxSpeed 13.89870259501
scalar CNPNet.node[2].veinsmobility totalDistance 270.18017129593
scalar CNPNet.node[2].veinsmobility totalCO2Emission 129.25578062968
scalar CNPNet.node[20].lo[0].lo rcvdPkFromHl:count 0
attr interpolationmode none
attr source packetReceivedFromUpper
attr title "packets received from higher layer, count"
scalar CNPNet.node[20].lo[0].lo rcvdPkFromHl:sum(packetBytes) 0
attr interpolationmode none
attr source packetReceivedFromUpper
attr title "packets received from higher layer, sum(packetBytes)"
scalar CNPNet.node[20].lo[0].lo passedUpPk:count 0
attr interpolationmode none
attr source packetSentToUpper
attr title "packets passed to higher layer, count"
scalar CNPNet.node[20].lo[0].lo passedUpPk:sum(packetBytes) 0
attr interpolationmode none
attr source packetSentToUpper
attr title "packets passed to higher layer, sum(packetBytes)"
scalar CNPNet.node[20].ipv6.neighbourDiscovery startDad:count 0
attr title "DAD started, count"
scalar CNPNet.node[20].udp packetReceived:count 0
attr interpolationmode none
attr source packetReceived
attr title "packets received, count"
scalar CNPNet.node[20].udp packetReceived:sum(packetBytes) 0
attr interpolationmode none
attr source packetReceived
attr title "packets received, sum(packetBytes)"
scalar CNPNet.node[20].udp packetSent:count 300
attr interpolationmode none
attr source packetSent
attr title "packets sent, count"
scalar CNPNet.node[20].udp packetSent:sum(packetBytes) 302400
attr interpolationmode none
attr source packetSent
attr title "packets sent, sum(packetBytes)"
scalar CNPNet.node[20].udp passedUpPk:count 0
attr interpolationmode none
attr source packetSentToUpper
attr title "packets passed up, count"
scalar CNPNet.node[20].udp droppedPkWrongPort:count 0
attr interpolationmode none
attr source packetDropReasonIsNoPortFound(packetDropped)
attr title "packets dropped (wrong port), count"
scalar CNPNet.node[20].udp droppedPkBadChecksum:count 0
attr interpolationmode none
attr source packetDropReasonIsIncorrectlyReceived(packetDropped)
attr title "packets dropped (checksum error), count"
scalar CNPNet.node[20].app[0] "packets sent" 300
scalar CNPNet.node[20].app[0] "packets received" 0
scalar CNPNet.node[20].app[0] packetReceived:count 0
attr interpolationmode none
attr source packetReceived
attr title "packets received, count"
scalar CNPNet.node[20].app[0] packetReceived:sum(packetBytes) 0
attr interpolationmode none
attr source packetReceived
attr title "packets received, sum(packetBytes)"
statistic CNPNet.node[20].app[0] rcvdPkLifetime:stats
field count 0
field mean -nan
field stddev -nan
field min -nan
field max -nan
field sum 0
field sqrsum 0
attr interpolationmode none
attr source dataAge(packetReceived)
attr title "received packet lifetime, stats"
attr unit s
scalar CNPNet.node[20].app[0] packetSent:count 300
attr interpolationmode none
attr source packetSent
attr title "packets sent, count"
scalar CNPNet.node[20].app[0] packetSent:sum(packetBytes) 300000
attr interpolationmode none
attr source packetSent
attr title "packets sent, sum(packetBytes)"
scalar CNPNet.node[20].nic.phy80211p busyTime 0.0012626086956522
scalar CNPNet.node[20].nic.mac1609_4 ReceivedUnicastPackets 2
scalar CNPNet.node[20].nic.mac1609_4 ReceivedBroadcasts 25
scalar CNPNet.node[20].nic.mac1609_4 SentPackets 6
scalar CNPNet.node[20].nic.mac1609_4 SentAcknowledgements 0
scalar CNPNet.node[20].nic.mac1609_4 SNIRLostPackets 0
scalar CNPNet.node[20].nic.mac1609_4 RXTXLostPackets 25
scalar CNPNet.node[20].nic.mac1609_4 TotalLostPackets 25
scalar CNPNet.node[20].nic.mac1609_4 DroppedPacketsInMac 0
scalar CNPNet.node[20].nic.mac1609_4 TooLittleTime 0
scalar CNPNet.node[20].nic.mac1609_4 TimesIntoBackoff 6
scalar CNPNet.node[20].nic.mac1609_4 SlotsBackoff 42
scalar CNPNet.node[20].nic.mac1609_4 NumInternalContention 0
scalar CNPNet.node[20].nic.mac1609_4 totalBusyTime 0.038614095513
scalar CNPNet.node[20].veinsmobility startTime 50.1
scalar CNPNet.node[20].veinsmobility totalTime 29.9
scalar CNPNet.node[20].veinsmobility stopTime 80
scalar CNPNet.node[20].veinsmobility minSpeed 0.48088417465915
scalar CNPNet.node[20].veinsmobility maxSpeed 13.899479030666
scalar CNPNet.node[20].veinsmobility totalDistance 391.24759153742
scalar CNPNet.node[20].veinsmobility totalCO2Emission 108.17365222266
scalar CNPNet.node[21].lo[0].lo rcvdPkFromHl:count 0
attr interpolationmode none
attr source packetReceivedFromUpper
attr title "packets received from higher layer, count"
scalar CNPNet.node[21].lo[0].lo rcvdPkFromHl:sum(packetBytes) 0
attr interpolationmode none
attr source packetReceivedFromUpper
attr title "packets received from higher layer, sum(packetBytes)"
scalar CNPNet.node[21].lo[0].lo passedUpPk:count 0
attr interpolationmode none
attr source packetSentToUpper
attr title "packets passed to higher layer, count"
scalar CNPNet.node[21].lo[0].lo passedUpPk:sum(packetBytes) 0
attr interpolationmode none
attr source packetSentToUpper
attr title "packets passed to higher layer, sum(packetBytes)"
scalar CNPNet.node[21].ipv6.neighbourDiscovery startDad:count 0
attr title "DAD started, count"
scalar CNPNet.node[21].udp packetReceived:count 0
attr interpolationmode none
attr source packetReceived
attr title "packets received, count"
scalar CNPNet.node[21].udp packetReceived:sum(packetBytes) 0
attr interpolationmode none
attr source packetReceived
attr title "packets received, sum(packetBytes)"
scalar CNPNet.node[21].udp packetSent:count 275
attr interpolationmode none
attr source packetSent
attr title "packets sent, count"
scalar CNPNet.node[21].udp packetSent:sum(packetBytes) 277200
attr interpolationmode none
attr source packetSent
attr title "packets sent, sum(packetBytes)"
scalar CNPNet.node[21].udp passedUpPk:count 0
attr interpolationmode none
attr source packetSentToUpper
attr title "packets passed up, count"
scalar CNPNet.node[21].udp droppedPkWrongPort:count 0
attr interpolationmode none
attr source packetDropReasonIsNoPortFound(packetDropped)
attr title "packets dropped (wrong port), count"
scalar CNPNet.node[21].udp droppedPkBadChecksum:count 0
attr interpolationmode none
attr source packetDropReasonIsIncorrectlyReceived(packetDropped)
attr title "packets dropped (checksum error), count"
scalar CNPNet.node[21].app[0] "packets sent" 275
scalar CNPNet.node[21].app[0] "packets received" 0
scalar CNPNet.node[21].app[0] packetReceived:count 0
attr interpolationmode none
attr source packetReceived
attr title "packets received, count"
scalar CNPNet.node[21].app[0] packetReceived:sum(packetBytes) 0
attr interpolationmode none
attr source packetReceived
attr title "packets received, sum(packetBytes)"
statistic CNPNet.node[21].app[0] rcvdPkLifetime:stats
field count 0
field mean -nan
field stddev -nan
field min -nan
field max -nan
field sum 0
field sqrsum 0
attr interpolationmode none
attr source dataAge(packetReceived)
attr title "received packet lifetime, stats"
attr unit s
scalar CNPNet.node[21].app[0] packetSent:count 275
attr interpolationmode none
attr source packetSent
attr title "packets sent, count"
scalar CNPNet.node[21].app[0] packetSent:sum(packetBytes) 275000
attr interpolationmode none
attr source packetSent
attr title "packets sent, sum(packetBytes)"
scalar CNPNet.node[21].nic.phy80211p busyTime 0.0013503649635036
scalar CNPNet.node[21].nic.mac1609_4 ReceivedUnicastPackets 5
scalar CNPNet.node[21].nic.mac1609_4 ReceivedBroadcasts 22
scalar CNPNet.node[21].nic.mac1609_4 SentPackets 8
scalar CNPNet.node[21].nic.mac1609_4 SentAcknowledgements 0
scalar CNPNet.node[21].nic.mac1609_4 SNIRLostPackets 13
scalar CNPNet.node[21].nic.mac1609_4 RXTXLostPackets 13
scalar CNPNet.node[21].nic.mac1609_4 TotalLostPackets 26
scalar CNPNet.node[21].nic.mac1609_4 DroppedPacketsInMac 0
scalar CNPNet.node[21].nic.mac1609_4 TooLittleTime 0
scalar CNPNet.node[21].nic.mac1609_4 TimesIntoBackoff 9
scalar CNPNet.node[21].nic.mac1609_4 SlotsBackoff 72
scalar CNPNet.node[21].nic.mac1609_4 NumInternalContention 0
scalar CNPNet.node[21].nic.mac1609_4 totalBusyTime 0.036320000263
scalar CNPNet.node[21].veinsmobility startTime 52.6
scalar CNPNet.node[21].veinsmobility totalTime 27.4
scalar CNPNet.node[21].veinsmobility stopTime 80
scalar CNPNet.node[21].veinsmobility minSpeed 0.47660501042847
scalar CNPNet.node[21].veinsmobility maxSpeed 13.899771771312
scalar CNPNet.node[21].veinsmobility totalDistance 317.18571095562
scalar CNPNet.node[21].veinsmobility totalCO2Emission 111.22166272413
scalar CNPNet.node[22].lo[0].lo rcvdPkFromHl:count 0
attr interpolationmode none
attr source packetReceivedFromUpper
attr title "packets received from higher layer, count"
scalar CNPNet.node[22].lo[0].lo rcvdPkFromHl:sum(packetBytes) 0
attr interpolationmode none
attr source packetReceivedFromUpper
attr title "packets received from higher layer, sum(packetBytes)"
scalar CNPNet.node[22].lo[0].lo passedUpPk:count 0
attr interpolationmode none
attr source packetSentToUpper
attr title "packets passed to higher layer, count"
scalar CNPNet.node[22].lo[0].lo passedUpPk:sum(packetBytes) 0
attr interpolationmode none
attr source packetSentToUpper
attr title "packets passed to higher layer, sum(packetBytes)"
scalar CNPNet.node[22].ipv6.neighbourDiscovery startDad:count 0
attr title "DAD started, count"
scalar CNPNet.node[22].udp packetReceived:count 0
attr interpolationmode none
attr source packetReceived
attr title "packets received, count"
scalar CNPNet.node[22].udp packetReceived:sum(packetBytes) 0
attr interpolationmode none
attr source packetReceived
attr title "packets received, sum(packetBytes)"
scalar CNPNet.node[22].udp packetSent:count 250
attr interpolationmode none
attr source packetSent
attr title "packets sent, count"
scalar CNPNet.node[22].udp packetSent:sum(packetBytes) 252000
attr interpolationmode none
attr source packetSent
attr title "packets sent, sum(packetBytes)"
scalar CNPNet.node[22].udp passedUpPk:count 0
attr interpolationmode none
attr source packetSentToUpper
attr title "packets passed up, count"
scalar CNPNet.node[22].udp droppedPkWrongPort:count 0
attr interpolationmode none
attr source packetDropReasonIsNoPortFound(packetDropped)
attr title "packets dropped (wrong port), count"
scalar CNPNet.node[22].udp droppedPkBadChecksum:count 0
attr interpolationmode none
attr source packetDropReasonIsIncorrectlyReceived(packetDropped)
attr title "packets dropped (checksum error), count"
scalar CNPNet.node[22].app[0] "packets sent" 250
scalar CNPNet.node[22].app[0] "packets received" 0
scalar CNPNet.node[22].app[0] packetReceived:count 0
attr interpolationmode none
attr source packetReceived
attr title "packets received, count"
scalar CNPNet.node[22].app[0] packetReceived:sum(packetBytes) 0
attr interpolationmode none
attr source packetReceived
attr title "packets received, sum(packetBytes)"
statistic CNPNet.node[22].app[0] rcvdPkLifetime:stats
field count 0
field mean -nan
field stddev -nan
field min -nan
field max -nan
field sum 0
field sqrsum 0
attr interpolationmode none
attr source dataAge(packetReceived)
attr title "received packet lifetime, stats"
attr unit s
scalar CNPNet.node[22].app[0] packetSent:count 250
attr interpolationmode none
attr source packetSent
attr title "packets sent, count"
scalar CNPNet.node[22].app[0] packetSent:sum(packetBytes) 250000
attr interpolationmode none
attr source packetSent
attr title "packets sent, sum(packetBytes)"
scalar CNPNet.node[22].nic.phy80211p busyTime 0.0013744578313253
scalar CNPNet.node[22].nic.mac1609_4 ReceivedUnicastPackets 5
scalar CNPNet.node[22].nic.mac1609_4 ReceivedBroadcasts 19
scalar CNPNet.node[22].nic.mac1609_4 SentPackets 7
scalar CNPNet.node[22].nic.mac1609_4 SentAcknowledgements 0
scalar CNPNet.node[22].nic.mac1609_4 SNIRLostPackets 26
scalar CNPNet.node[22].nic.mac1609_4 RXTXLostPackets 0
scalar CNPNet.node[22].nic.mac1609_4 TotalLostPackets 26
scalar CNPNet.node[22].nic.mac1609_4 DroppedPacketsInMac 0
scalar CNPNet.node[22].nic.mac1609_4 TooLittleTime 0
scalar CNPNet.node[22].nic.mac1609_4 TimesIntoBackoff 8
scalar CNPNet.node[22].nic.mac1609_4 SlotsBackoff 47
scalar CNPNet.node[22].nic.mac1609_4 NumInternalContention 0
scalar CNPNet.node[22].nic.mac1609_4 totalBusyTime 0.031567000084
scalar CNPNet.node[22].veinsmobility startTime 55.1
scalar CNPNet.node[22].veinsmobility totalTime 24.9
scalar CNPNet.node[22].veinsmobility stopTime 80
scalar CNPNet.node[22].veinsmobility minSpeed 0.49704605233273
scalar CNPNet.node[22].veinsmobility maxSpeed 13.898356681084
scalar CNPNet.node[22].veinsmobility totalDistance 310.74805597313
scalar CNPNet.node[22].veinsmobility totalCO2Emission 101.08364419488
scalar CNPNet.node[23].lo[0].lo rcvdPkFromHl:count 0
attr interpolationmode none
attr source packetReceivedFromUpper
attr title "packets received from higher layer, count"
scalar CNPNet.node[23].lo[0].lo rcvdPkFromHl:sum(packetBytes) 0
attr interpolationmode none
attr source packetReceivedFromUpper
attr title "packets received from higher layer, sum(packetBytes)"
scalar CNPNet.node[23].lo[0].lo passedUpPk:count 0
attr interpolationmode none
attr source packetSentToUpper
attr title "packets passed to higher layer, count"
scalar CNPNet.node[23].lo[0].lo passedUpPk:sum(packetBytes) 0
attr interpolationmode none
attr source packetSentToUpper
attr title "packets passed to higher layer, sum(packetBytes)"
scalar CNPNet.node[23].ipv6.neighbourDiscovery startDad:count 0
attr title "DAD started, count"
scalar CNPNet.node[23].udp packetReceived:count 0
attr interpolationmode none
attr source packetReceived
attr title "packets received, count"
scalar CNPNet.node[23].udp packetReceived:sum(packetBytes) 0
attr interpolationmode none
attr source packetReceived
attr title "packets received, sum(packetBytes)"
scalar CNPNet.node[23].udp packetSent:count 225
attr interpolationmode none
attr source packetSent
attr title "packets sent, count"
scalar CNPNet.node[23].udp packetSent:sum(packetBytes) 226800
attr interpolationmode none
attr source packetSent
attr title "packets sent, sum(packetBytes)"
scalar CNPNet.node[23].udp passedUpPk:count 0
attr interpolationmode none
attr source packetSentToUpper
attr title "packets passed up, count"
scalar CNPNet.node[23].udp droppedPkWrongPort:count 0
attr interpolationmode none
attr source packetDropReasonIsNoPortFound(packetDropped)
attr title "packets dropped (wrong port), count"
scalar CNPNet.node[23].udp droppedPkBadChecksum:count 0
attr interpolationmode none
attr source packetDropReasonIsIncorrectlyReceived(packetDropped)
attr title "packets dropped (checksum error), count"
scalar CNPNet.node[23].app[0] "packets sent" 225
scalar CNPNet.node[23].app[0] "packets received" 0
scalar CNPNet.node[23].app[0] packetReceived:count 0
attr interpolationmode none
attr source packetReceived
attr title "packets received, count"
scalar CNPNet.node[23].app[0] packetReceived:sum(packetBytes) 0
attr interpolationmode none
attr source packetReceived
attr title "packets received, sum(packetBytes)"
statistic CNPNet.node[23].app[0] rcvdPkLifetime:stats
field count 0
field mean -nan
field stddev -nan
field min -nan
field max -nan
field sum 0
field sqrsum 0
attr interpolationmode none
attr source dataAge(packetReceived)
attr title "received packet lifetime, stats"
attr unit s
scalar CNPNet.node[23].app[0] packetSent:count 225
attr interpolationmode none
attr source packetSent
attr title "packets sent, count"
scalar CNPNet.node[23].app[0] packetSent:sum(packetBytes) 225000
attr interpolationmode none
attr source packetSent
attr title "packets sent, sum(packetBytes)"
scalar CNPNet.node[23].nic.phy80211p busyTime 0.00136
scalar CNPNet.node[23].nic.mac1609_4 ReceivedUnicastPackets 2
scalar CNPNet.node[23].nic.mac1609_4 ReceivedBroadcasts 17
scalar CNPNet.node[23].nic.mac1609_4 SentPackets 4
scalar CNPNet.node[23].nic.mac1609_4 SentAcknowledgements 0
scalar CNPNet.node[23].nic.mac1609_4 SNIRLostPackets 22
scalar CNPNet.node[23].nic.mac1609_4 RXTXLostPackets 0
scalar CNPNet.node[23].nic.mac1609_4 TotalLostPackets 22
scalar CNPNet.node[23].nic.mac1609_4 DroppedPacketsInMac 0
scalar CNPNet.node[23].nic.mac1609_4 TooLittleTime 0
scalar CNPNet.node[23].nic.mac1609_4 TimesIntoBackoff 5
scalar CNPNet.node[23].nic.mac1609_4 SlotsBackoff 37
scalar CNPNet.node[23].nic.mac1609_4 NumInternalContention 0
scalar CNPNet.node[23].nic.mac1609_4 totalBusyTime 0.02798
scalar CNPNet.node[23].veinsmobility startTime 57.6
scalar CNPNet.node[23].veinsmobility totalTime 22.4
scalar CNPNet.node[23].veinsmobility stopTime 80
scalar CNPNet.node[23].veinsmobility minSpeed 0.48791288219509
scalar CNPNet.node[23].veinsmobility maxSpeed 13.89932348897
scalar CNPNet.node[23].veinsmobility totalDistance 287.72702202846
scalar CNPNet.node[23].veinsmobility totalCO2Emission 84.199966134597
scalar CNPNet.node[24].lo[0].lo rcvdPkFromHl:count 0
attr interpolationmode none
attr source packetReceivedFromUpper
attr title "packets received from higher layer, count"
scalar CNPNet.node[24].lo[0].lo rcvdPkFromHl:sum(packetBytes) 0
attr interpolationmode none
attr source packetReceivedFromUpper
attr title "packets received from higher layer, sum(packetBytes)"
scalar CNPNet.node[24].lo[0].lo passedUpPk:count 0
attr interpolationmode none
attr source packetSentToUpper
attr title "packets passed to higher layer, count"
scalar CNPNet.node[24].lo[0].lo passedUpPk:sum(packetBytes) 0
attr interpolationmode none
attr source packetSentToUpper
attr title "packets passed to higher layer, sum(packetBytes)"
scalar CNPNet.node[24].ipv6.neighbourDiscovery startDad:count 0
attr title "DAD started, count"
scalar CNPNet.node[24].udp packetReceived:count 0
attr interpolationmode none
attr source packetReceived
attr title "packets received, count"
scalar CNPNet.node[24].udp packetReceived:sum(packetBytes) 0
attr interpolationmode none
attr source packetReceived
attr title "packets received, sum(packetBytes)"
scalar CNPNet.node[24].udp packetSent:count 200
attr interpolationmode none
attr source packetSent
attr title "packets sent, count"
scalar CNPNet.node[24].udp packetSent:sum(packetBytes) 201600
attr interpolationmode none
attr source packetSent
attr title "packets sent, sum(packetBytes)"
scalar CNPNet.node[24].udp passedUpPk:count 0
attr interpolationmode none
attr source packetSentToUpper
attr title "packets passed up, count"
scalar CNPNet.node[24].udp droppedPkWrongPort:count 0
attr interpolationmode none
attr source packetDropReasonIsNoPortFound(packetDropped)
attr title "packets dropped (wrong port), count"
scalar CNPNet.node[24].udp droppedPkBadChecksum:count 0
attr interpolationmode none
attr source packetDropReasonIsIncorrectlyReceived(packetDropped)
attr title "packets dropped (checksum error), count"
scalar CNPNet.node[24].app[0] "packets sent" 200
scalar CNPNet.node[24].app[0] "packets received" 0
scalar CNPNet.node[24].app[0] packetReceived:count 0
attr interpolationmode none
attr source packetReceived
attr title "packets received, count"
scalar CNPNet.node[24].app[0] packetReceived:sum(packetBytes) 0
attr interpolationmode none
attr source packetReceived
attr title "packets received, sum(packetBytes)"
statistic CNPNet.node[24].app[0] rcvdPkLifetime:stats
field count 0
field mean -nan
field stddev -nan
field min -nan
field max -nan
field sum 0
field sqrsum 0
attr interpolationmode none
attr source dataAge(packetReceived)
attr title "received packet lifetime, stats"
attr unit s
scalar CNPNet.node[24].app[0] packetSent:count 200
attr interpolationmode none
attr source packetSent
attr title "packets sent, count"
scalar CNPNet.node[24].app[0] packetSent:sum(packetBytes) 200000
attr interpolationmode none
attr source packetSent
attr title "packets sent, sum(packetBytes)"
scalar CNPNet.node[24].nic.phy80211p busyTime 0.001350351758794
scalar CNPNet.node[24].nic.mac1609_4 ReceivedUnicastPackets 2
scalar CNPNet.node[24].nic.mac1609_4 ReceivedBroadcasts 15
scalar CNPNet.node[24].nic.mac1609_4 SentPackets 4
scalar CNPNet.node[24].nic.mac1609_4 SentAcknowledgements 0
scalar CNPNet.node[24].nic.mac1609_4 SNIRLostPackets 22
scalar CNPNet.node[24].nic.mac1609_4 RXTXLostPackets 0
scalar CNPNet.node[24].nic.mac1609_4 TotalLostPackets 22
scalar CNPNet.node[24].nic.mac1609_4 DroppedPacketsInMac 0
scalar CNPNet.node[24].nic.mac1609_4 TooLittleTime 0
scalar CNPNet.node[24].nic.mac1609_4 TimesIntoBackoff 5
scalar CNPNet.node[24].nic.mac1609_4 SlotsBackoff 37
scalar CNPNet.node[24].nic.mac1609_4 NumInternalContention 0
scalar CNPNet.node[24].nic.mac1609_4 totalBusyTime 0.024388
scalar CNPNet.node[24].veinsmobility startTime 60.1
scalar CNPNet.node[24].veinsmobility totalTime 19.9
scalar CNPNet.node[24].veinsmobility stopTime 80
scalar CNPNet.node[24].veinsmobility minSpeed 0.49143855306902
scalar CNPNet.node[24].veinsmobility maxSpeed 13.898759849346
scalar CNPNet.node[24].veinsmobility totalDistance 248.04338358037
scalar CNPNet.node[24].veinsmobility totalCO2Emission 74.768446612047
scalar CNPNet.node[25].lo[0].lo rcvdPkFromHl:count 0
attr interpolationmode none
attr source packetReceivedFromUpper
attr title "packets received from higher layer, count"
scalar CNPNet.node[25].lo[0].lo rcvdPkFromHl:sum(packetBytes) 0
attr interpolationmode none
attr source packetReceivedFromUpper
attr title "packets received from higher layer, sum(packetBytes)"
scalar CNPNet.node[25].lo[0].lo passedUpPk:count 0
attr interpolationmode none
attr source packetSentToUpper
attr title "packets passed to higher layer, count"
scalar CNPNet.node[25].lo[0].lo passedUpPk:sum(packetBytes) 0
attr interpolationmode none
attr source packetSentToUpper
attr title "packets passed to higher layer, sum(packetBytes)"
scalar CNPNet.node[25].ipv6.neighbourDiscovery startDad:count 0
attr title "DAD started, count"
scalar CNPNet.node[25].udp packetReceived:count 0
attr interpolationmode none
attr source packetReceived
attr title "packets received, count"
scalar CNPNet.node[25].udp packetReceived:sum(packetBytes) 0
attr interpolationmode none
attr source packetReceived
attr title "packets received, sum(packetBytes)"
[...]
attr title "packets passed to higher layer, count"
scalar CNPNet.MA[0].lo[0].lo passedUpPk:sum(packetBytes) 0
attr interpolationmode none
attr source packetSentToUpper
attr title "packets passed to higher layer, sum(packetBytes)"
statistic CNPNet.MA[0].eth[0].queue.pauseQueue queueingTime:histogram
field count 0
field mean -nan
field stddev -nan
field min -nan
field max -nan
field sum 0
field sqrsum 0
attr interpolationmode none
attr title "queueing time, histogram"
bin	-inf	0
bin	0	0
bin	1	0
scalar CNPNet.MA[0].eth[0].queue.pauseQueue queueLength:max 0
attr interpolationmode sample-hold
attr title "queue length, max"
scalar CNPNet.MA[0].eth[0].queue.pauseQueue queueLength:timeavg 0
attr interpolationmode sample-hold
attr title "queue length, timeavg"
scalar CNPNet.MA[0].eth[0].queue.pauseQueue packetReceived:count 0
attr interpolationmode none
attr title "received packets, count"
scalar CNPNet.MA[0].eth[0].queue.pauseQueue packetReceived:sum(packetBytes) 0
attr interpolationmode none
attr title "received packets, sum(packetBytes)"
scalar CNPNet.MA[0].eth[0].queue.pauseQueue dropPk:count 0
attr interpolationmode none
attr source packetDropped
attr title "dropped packets, count"
scalar CNPNet.MA[0].eth[0].queue.pauseQueue dropPk:sum(packetBytes) 0
attr interpolationmode none
attr source packetDropped
attr title "dropped packets, sum(packetBytes)"
statistic CNPNet.MA[0].eth[0].queue.dataQueue queueingTime:histogram
field count 0
field mean -nan
field stddev -nan
field min -nan
field max -nan
field sum 0
field sqrsum 0
attr interpolationmode none
attr title "queueing time, histogram"
bin	-inf	0
bin	0	0
bin	1	0
scalar CNPNet.MA[0].eth[0].queue.dataQueue queueLength:max 0
attr interpolationmode sample-hold
attr title "queue length, max"
scalar CNPNet.MA[0].eth[0].queue.dataQueue queueLength:timeavg 0
attr interpolationmode sample-hold
attr title "queue length, timeavg"
scalar CNPNet.MA[0].eth[0].queue.dataQueue packetReceived:count 0
attr interpolationmode none
attr title "received packets, count"
scalar CNPNet.MA[0].eth[0].queue.dataQueue packetReceived:sum(packetBytes) 0
attr interpolationmode none
attr title "received packets, sum(packetBytes)"
scalar CNPNet.MA[0].eth[0].queue.dataQueue dropPk:count 0
attr interpolationmode none
attr source packetDropped
attr title "dropped packets, count"
scalar CNPNet.MA[0].eth[0].queue.dataQueue dropPk:sum(packetBytes) 0
attr interpolationmode none
attr source packetDropped
attr title "dropped packets, sum(packetBytes)"
scalar CNPNet.MA[0].eth[0].mac "simulated time" 80
scalar CNPNet.MA[0].eth[0].mac full-duplex 1
scalar CNPNet.MA[0].eth[0].mac "frames/sec sent" 0
scalar CNPNet.MA[0].eth[0].mac "frames/sec rcvd" 0.375
scalar CNPNet.MA[0].eth[0].mac "bits/sec sent" 0
scalar CNPNet.MA[0].eth[0].mac "bits/sec rcvd" 294
scalar CNPNet.MA[0].eth[0].mac "rx channel idle (%)" 100
scalar CNPNet.MA[0].eth[0].mac "rx channel utilization (%)" 0
scalar CNPNet.MA[0].eth[0].mac rxPausePkUnits:count 0
attr interpolationmode none
attr title "pause units received, count"
scalar CNPNet.MA[0].eth[0].mac rxPausePkUnits:sum 0
attr interpolationmode none
attr title "pause units received, sum"
scalar CNPNet.MA[0].eth[0].mac txPausePkUnits:count 0
attr interpolationmode none
attr title "pause units sent, count"
scalar CNPNet.MA[0].eth[0].mac txPausePkUnits:sum 0
attr interpolationmode none
attr title "pause units sent, sum"
scalar CNPNet.MA[0].eth[0].mac rxPkOk:count 30
attr interpolationmode none
attr source rxPkOk
attr title "packets received OK, count"
scalar CNPNet.MA[0].eth[0].mac rxPkOk:sum(packetBytes) 2940
attr interpolationmode none
attr source rxPkOk
attr title "packets received OK, sum(packetBytes)"
scalar CNPNet.MA[0].eth[0].mac txPk:count 0
attr interpolationmode none
attr source packetSentToLower
attr title "packets transmitted, count"
scalar CNPNet.MA[0].eth[0].mac txPk:sum(packetBytes) 0
attr interpolationmode none
attr source packetSentToLower
attr title "packets transmitted, sum(packetBytes)"
scalar CNPNet.MA[0].eth[0].mac packetReceivedFromUpper:count 0
attr interpolationmode none
attr source packetReceivedFromUpper
attr title "packet bytes from higher layer, count"
scalar CNPNet.MA[0].eth[0].mac packetReceivedFromUpper:sum(packetBytes) 0
attr interpolationmode none
attr source packetReceivedFromUpper
attr title "packet bytes from higher layer, sum(packetBytes)"
scalar CNPNet.MA[0].eth[0].mac passedUpPk:count 30
attr interpolationmode none
attr source packetSentToUpper
attr title "packets passed to higher layer, count"
scalar CNPNet.MA[0].eth[0].mac passedUpPk:sum(packetBytes) 2940
attr interpolationmode none
attr source packetSentToUpper
attr title "packets passed to higher layer, sum(packetBytes)"
scalar CNPNet.MA[0].eth[0].mac packetDropIncorrectlyReceived:count 0
attr interpolationmode none
attr source packetDropReasonIsIncorrectlyReceived(packetDropped)
attr title "packet drop: incorrectly received, count"
scalar CNPNet.MA[0].eth[0].mac packetDropIncorrectlyReceived:sum(packetBytes) 0
attr interpolationmode none
attr source packetDropReasonIsIncorrectlyReceived(packetDropped)
attr title "packet drop: incorrectly received, sum(packetBytes)"
scalar CNPNet.MA[0].eth[0].mac packetDropInterfaceDown:count 0
attr interpolationmode none
attr source packetDropReasonIsInterfaceDown(packetDropped)
attr title "packet drop: interface down, count"
scalar CNPNet.MA[0].eth[0].mac packetDropInterfaceDown:sum(packetBytes) 0
attr interpolationmode none
attr source packetDropReasonIsInterfaceDown(packetDropped)
attr title "packet drop: interface down, sum(packetBytes)"
scalar CNPNet.MA[0].eth[0].mac packetDropNotAddressedToUs:count 0
attr interpolationmode none
attr source packetDropReasonIsNotAddressedToUs(packetDropped)
attr title "packet drop: not addressed to us, count"
scalar CNPNet.MA[0].eth[0].mac packetDropNotAddressedToUs:sum(packetBytes) 0
attr interpolationmode none
attr source packetDropReasonIsNotAddressedToUs(packetDropped)
attr title "packet drop: not addressed to us, sum(packetBytes)"
scalar CNPNet.MA[0].eth[0].encap pauseSent:count 0
attr title "pause sent, count"
scalar CNPNet.MA[0].eth[0].encap pauseSent:sum 0
attr title "pause sent, sum"
scalar CNPNet.MA[0].eth[0].encap decapPk:count 30
attr interpolationmode none
attr source decapPk
attr title "packets decapsulated, count"
scalar CNPNet.MA[0].eth[0].encap decapPk:sum(packetBytes) 2400
attr interpolationmode none
attr source decapPk
attr title "packets decapsulated, sum(packetBytes)"
scalar CNPNet.MA[0].eth[0].encap encapPk:count 0
attr interpolationmode none
attr source encapPk
attr title "packets encapsulated, count"
scalar CNPNet.MA[0].eth[0].encap encapPk:sum(packetBytes) 0
attr interpolationmode none
attr source encapPk
attr title "packets encapsulated, sum(packetBytes)"
statistic CNPNet.MA[0].eth[1].queue.pauseQueue queueingTime:histogram
field count 0
field mean -nan
field stddev -nan
field min -nan
field max -nan
field sum 0
field sqrsum 0
attr interpolationmode none
attr title "queueing time, histogram"
bin	-inf	0
bin	0	0
bin	1	0
scalar CNPNet.MA[0].eth[1].queue.pauseQueue queueLength:max 0
attr interpolationmode sample-hold
attr title "queue length, max"
scalar CNPNet.MA[0].eth[1].queue.pauseQueue queueLength:timeavg 0
attr interpolationmode sample-hold
attr title "queue length, timeavg"
scalar CNPNet.MA[0].eth[1].queue.pauseQueue packetReceived:count 0
attr interpolationmode none
attr title "received packets, count"
scalar CNPNet.MA[0].eth[1].queue.pauseQueue packetReceived:sum(packetBytes) 0
attr interpolationmode none
attr title "received packets, sum(packetBytes)"
scalar CNPNet.MA[0].eth[1].queue.pauseQueue dropPk:count 0
attr interpolationmode none
attr source packetDropped
attr title "dropped packets, count"
scalar CNPNet.MA[0].eth[1].queue.pauseQueue dropPk:sum(packetBytes) 0
attr interpolationmode none
attr source packetDropped
attr title "dropped packets, sum(packetBytes)"
statistic CNPNet.MA[0].eth[1].queue.dataQueue queueingTime:histogram
field count 0
field mean -nan
field stddev -nan
field min -nan
field max -nan
field sum 0
field sqrsum 0
attr interpolationmode none
attr title "queueing time, histogram"
bin	-inf	0
bin	0	0
bin	1	0
scalar CNPNet.MA[0].eth[1].queue.dataQueue queueLength:max 0
attr interpolationmode sample-hold
attr title "queue length, max"
scalar CNPNet.MA[0].eth[1].queue.dataQueue queueLength:timeavg 0
attr interpolationmode sample-hold
attr title "queue length, timeavg"
scalar CNPNet.MA[0].eth[1].queue.dataQueue packetReceived:count 0
attr interpolationmode none
attr title "received packets, count"
scalar CNPNet.MA[0].eth[1].queue.dataQueue packetReceived:sum(packetBytes) 0
attr interpolationmode none
attr title "received packets, sum(packetBytes)"
scalar CNPNet.MA[0].eth[1].queue.dataQueue dropPk:count 0
attr interpolationmode none
attr source packetDropped
attr title "dropped packets, count"
scalar CNPNet.MA[0].eth[1].queue.dataQueue dropPk:sum(packetBytes) 0
attr interpolationmode none
attr source packetDropped
attr title "dropped packets, sum(packetBytes)"
scalar CNPNet.MA[0].eth[1].mac "simulated time" 80
scalar CNPNet.MA[0].eth[1].mac full-duplex 1
scalar CNPNet.MA[0].eth[1].mac "frames/sec sent" 0
scalar CNPNet.MA[0].eth[1].mac "frames/sec rcvd" 0.4125
scalar CNPNet.MA[0].eth[1].mac "bits/sec sent" 0
scalar CNPNet.MA[0].eth[1].mac "bits/sec rcvd" 323.4
scalar CNPNet.MA[0].eth[1].mac "rx channel idle (%)" 100
scalar CNPNet.MA[0].eth[1].mac "rx channel utilization (%)" 0
scalar CNPNet.MA[0].eth[1].mac rxPausePkUnits:count 0
attr interpolationmode none
attr title "pause units received, count"
scalar CNPNet.MA[0].eth[1].mac rxPausePkUnits:sum 0
attr interpolationmode none
attr title "pause units received, sum"
scalar CNPNet.MA[0].eth[1].mac txPausePkUnits:count 0
attr interpolationmode none
attr title "pause units sent, count"
scalar CNPNet.MA[0].eth[1].mac txPausePkUnits:sum 0
attr interpolationmode none
attr title "pause units sent, sum"
scalar CNPNet.MA[0].eth[1].mac rxPkOk:count 33
attr interpolationmode none
attr source rxPkOk
attr title "packets received OK, count"
scalar CNPNet.MA[0].eth[1].mac rxPkOk:sum(packetBytes) 3234
attr interpolationmode none
attr source rxPkOk
attr title "packets received OK, sum(packetBytes)"
scalar CNPNet.MA[0].eth[1].mac txPk:count 0
attr interpolationmode none
attr source packetSentToLower
attr title "packets transmitted, count"
scalar CNPNet.MA[0].eth[1].mac txPk:sum(packetBytes) 0
attr interpolationmode none
attr source packetSentToLower
attr title "packets transmitted, sum(packetBytes)"
scalar CNPNet.MA[0].eth[1].mac packetReceivedFromUpper:count 0
attr interpolationmode none
attr source packetReceivedFromUpper
attr title "packet bytes from higher layer, count"
scalar CNPNet.MA[0].eth[1].mac packetReceivedFromUpper:sum(packetBytes) 0
attr interpolationmode none
attr source packetReceivedFromUpper
attr title "packet bytes from higher layer, sum(packetBytes)"
scalar CNPNet.MA[0].eth[1].mac passedUpPk:count 33
attr interpolationmode none
attr source packetSentToUpper
attr title "packets passed to higher layer, count"
scalar CNPNet.MA[0].eth[1].mac passedUpPk:sum(packetBytes) 3234
attr interpolationmode none
attr source packetSentToUpper
attr title "packets passed to higher layer, sum(packetBytes)"
scalar CNPNet.MA[0].eth[1].mac packetDropIncorrectlyReceived:count 0
attr interpolationmode none
attr source packetDropReasonIsIncorrectlyReceived(packetDropped)
attr title "packet drop: incorrectly received, count"
scalar CNPNet.MA[0].eth[1].mac packetDropIncorrectlyReceived:sum(packetBytes) 0
attr interpolationmode none
attr source packetDropReasonIsIncorrectlyReceived(packetDropped)
attr title "packet drop: incorrectly received, sum(packetBytes)"
scalar CNPNet.MA[0].eth[1].mac packetDropInterfaceDown:count 0
attr interpolationmode none
attr source packetDropReasonIsInterfaceDown(packetDropped)
attr title "packet drop: interface down, count"
scalar CNPNet.MA[0].eth[1].mac packetDropInterfaceDown:sum(packetBytes) 0
attr interpolationmode none
attr source packetDropReasonIsInterfaceDown(packetDropped)
attr title "packet drop: interface down, sum(packetBytes)"
scalar CNPNet.MA[0].eth[1].mac packetDropNotAddressedToUs:count 0
attr interpolationmode none
attr source packetDropReasonIsNotAddressedToUs(packetDropped)
attr title "packet drop: not addressed to us, count"
scalar CNPNet.MA[0].eth[1].mac packetDropNotAddressedToUs:sum(packetBytes) 0
attr interpolationmode none
attr source packetDropReasonIsNotAddressedToUs(packetDropped)
attr title "packet drop: not addressed to us, sum(packetBytes)"
scalar CNPNet.MA[0].eth[1].encap pauseSent:count 0
attr title "pause sent, count"
scalar CNPNet.MA[0].eth[1].encap pauseSent:sum 0
attr title "pause sent, sum"
scalar CNPNet.MA[0].eth[1].encap decapPk:count 33
attr interpolationmode none
attr source decapPk
attr title "packets decapsulated, count"
scalar CNPNet.MA[0].eth[1].encap decapPk:sum(packetBytes) 2640
attr interpolationmode none
attr source decapPk
attr title "packets decapsulated, sum(packetBytes)"
scalar CNPNet.MA[0].eth[1].encap encapPk:count 0
attr interpolationmode none
attr source encapPk
attr title "packets encapsulated, count"
scalar CNPNet.MA[0].eth[1].encap encapPk:sum(packetBytes) 0
attr interpolationmode none
attr source encapPk
attr title "packets encapsulated, sum(packetBytes)"
statistic CNPNet.MA[0].eth[2].queue.pauseQueue queueingTime:histogram
field count 0
field mean -nan
field stddev -nan
field min -nan
field max -nan
field sum 0
field sqrsum 0
attr interpolationmode none
attr title "queueing time, histogram"
bin	-inf	0
bin	0	0
bin	1	0
scalar CNPNet.MA[0].eth[2].queue.pauseQueue queueLength:max 0
attr interpolationmode sample-hold
attr title "queue length, max"
scalar CNPNet.MA[0].eth[2].queue.pauseQueue queueLength:timeavg 0
attr interpolationmode sample-hold
attr title "queue length, timeavg"
scalar CNPNet.MA[0].eth[2].queue.pauseQueue packetReceived:count 0
attr interpolationmode none
attr title "received packets, count"
scalar CNPNet.MA[0].eth[2].queue.pauseQueue packetReceived:sum(packetBytes) 0
attr interpolationmode none
attr title "received packets, sum(packetBytes)"
scalar CNPNet.MA[0].eth[2].queue.pauseQueue dropPk:count 0
attr interpolationmode none
attr source packetDropped
attr title "dropped packets, count"
scalar CNPNet.MA[0].eth[2].queue.pauseQueue dropPk:sum(packetBytes) 0
attr interpolationmode none
attr source packetDropped
attr title "dropped packets, sum(packetBytes)"
statistic CNPNet.MA[0].eth[2].queue.dataQueue queueingTime:histogram
field count 0
field mean -nan
field stddev -nan
field min -nan
field max -nan
field sum 0
field sqrsum 0
attr interpolationmode none
attr title "queueing time, histogram"
bin	-inf	0
bin	0	0
bin	1	0
scalar CNPNet.MA[0].eth[2].queue.dataQueue queueLength:max 0
attr interpolationmode sample-hold
attr title "queue length, max"
scalar CNPNet.MA[0].eth[2].queue.dataQueue queueLength:timeavg 0
attr interpolationmode sample-hold
attr title "queue length, timeavg"
scalar CNPNet.MA[0].eth[2].queue.dataQueue packetReceived:count 0
attr interpolationmode none
attr title "received packets, count"
scalar CNPNet.MA[0].eth[2].queue.dataQueue packetReceived:sum(packetBytes) 0
attr interpolationmode none
attr title "received packets, sum(packetBytes)"
scalar CNPNet.MA[0].eth[2].queue.dataQueue dropPk:count 0
attr interpolationmode none
attr source packetDropped
attr title "dropped packets, count"
scalar CNPNet.MA[0].eth[2].queue.dataQueue dropPk:sum(packetBytes) 0
attr interpolationmode none
attr source packetDropped
attr title "dropped packets, sum(packetBytes)"
scalar CNPNet.MA[0].eth[2].mac "simulated time" 80
scalar CNPNet.MA[0].eth[2].mac full-duplex 1
scalar CNPNet.MA[0].eth[2].mac "frames/sec sent" 0
scalar CNPNet.MA[0].eth[2].mac "frames/sec rcvd" 0.4
scalar CNPNet.MA[0].eth[2].mac "bits/sec sent" 0
scalar CNPNet.MA[0].eth[2].mac "bits/sec rcvd" 288
scalar CNPNet.MA[0].eth[2].mac "rx channel idle (%)" 100
scalar CNPNet.MA[0].eth[2].mac "rx channel utilization (%)" 0
scalar CNPNet.MA[0].eth[2].mac rxPausePkUnits:count 0
attr interpolationmode none
attr title "pause units received, count"
scalar CNPNet.MA[0].eth[2].mac rxPausePkUnits:sum 0
attr interpolationmode none
attr title "pause units received, sum"
scalar CNPNet.MA[0].eth[2].mac txPausePkUnits:count 0
attr interpolationmode none
attr title "pause units sent, count"
scalar CNPNet.MA[0].eth[2].mac txPausePkUnits:sum 0
attr interpolationmode none
attr title "pause units sent, sum"
scalar CNPNet.MA[0].eth[2].mac rxPkOk:count 32
attr interpolationmode none
attr source rxPkOk
attr title "packets received OK, count"
scalar CNPNet.MA[0].eth[2].mac rxPkOk:sum(packetBytes) 2880
attr interpolationmode none
attr source rxPkOk
attr title "packets received OK, sum(packetBytes)"
scalar CNPNet.MA[0].eth[2].mac txPk:count 0
attr interpolationmode none
attr source packetSentToLower
attr title "packets transmitted, count"
scalar CNPNet.MA[0].eth[2].mac txPk:sum(packetBytes) 0
attr interpolationmode none
attr source packetSentToLower
attr title "packets transmitted, sum(packetBytes)"
scalar CNPNet.MA[0].eth[2].mac packetReceivedFromUpper:count 0
attr interpolationmode none
attr source packetReceivedFromUpper
attr title "packet bytes from higher layer, count"
scalar CNPNet.MA[0].eth[2].mac packetReceivedFromUpper:sum(packetBytes) 0
attr interpolationmode none
attr source packetReceivedFromUpper
attr title "packet bytes from higher layer, sum(packetBytes)"
scalar CNPNet.MA[0].eth[2].mac passedUpPk:count 32
attr interpolationmode none
attr source packetSentToUpper
attr title "packets passed to higher layer, count"
scalar CNPNet.MA[0].eth[2].mac passedUpPk:sum(packetBytes) 2880
attr interpolationmode none
attr source packetSentToUpper
attr title "packets passed to higher layer, sum(packetBytes)"
scalar CNPNet.MA[0].eth[2].mac packetDropIncorrectlyReceived:count 0
attr interpolationmode none
attr source packetDropReasonIsIncorrectlyReceived(packetDropped)
attr title "packet drop: incorrectly received, count"
scalar CNPNet.MA[0].eth[2].mac packetDropIncorrectlyReceived:sum(packetBytes) 0
attr interpolationmode none
attr source packetDropReasonIsIncorrectlyReceived(packetDropped)
attr title "packet drop: incorrectly received, sum(packetBytes)"
scalar CNPNet.MA[0].eth[2].mac packetDropInterfaceDown:count 0
attr interpolationmode none
attr source packetDropReasonIsInterfaceDown(packetDropped)
attr title "packet drop: interface down, count"
scalar CNPNet.MA[0].eth[2].mac packetDropInterfaceDown:sum(packetBytes) 0
attr interpolationmode none
attr source packetDropReasonIsInterfaceDown(packetDropped)
attr title "packet drop: interface down, sum(packetBytes)"
scalar CNPNet.MA[0].eth[2].mac packetDropNotAddressedToUs:count 0
attr interpolationmode none
attr source packetDropReasonIsNotAddressedToUs(packetDropped)
attr title "packet drop: not addressed to us, count"
scalar CNPNet.MA[0].eth[2].mac packetDropNotAddressedToUs:sum(packetBytes) 0
attr interpolationmode none
attr source packetDropReasonIsNotAddressedToUs(packetDropped)
attr title "packet drop: not addressed to us, sum(packetBytes)"
scalar CNPNet.MA[0].eth[2].encap pauseSent:count 0
attr title "pause sent, count"
scalar CNPNet.MA[0].eth[2].encap pauseSent:sum 0
attr title "pause sent, sum"
scalar CNPNet.MA[0].eth[2].encap decapPk:count 32
attr interpolationmode none
attr source decapPk
attr title "packets decapsulated, count"
scalar CNPNet.MA[0].eth[2].encap decapPk:sum(packetBytes) 2304
attr interpolationmode none
attr source decapPk
attr title "packets decapsulated, sum(packetBytes)"
scalar CNPNet.MA[0].eth[2].encap encapPk:count 0
attr interpolationmode none
attr source encapPk
attr title "packets encapsulated, count"
scalar CNPNet.MA[0].eth[2].encap encapPk:sum(packetBytes) 0
attr interpolationmode none
attr source encapPk
attr title "packets encapsulated, sum(packetBytes)"
scalar CNPNet.MA[0].ipv6.neighbourDiscovery startDad:count 0
attr title "DAD started, count"

