version 2
run Lamda_3-0-20200724-15:58:10-13548
attr configname Lamda_3
attr datetime 20200724-15:58:10
attr experiment Lamda_3
attr inifile CNPOMNeTPP.ini
attr iterationvars ""
attr iterationvarsf ""
attr measurement ""
attr network CNPNet
attr processid 13548
attr repetition 0
attr replication #0
attr resultdir results
attr runnumber 0
attr seedset 0
param *.manager.launchConfig "xmldoc(\"CAN2Mapd4.launchd.xml\")"
param *.node[*].appl.lambda 3
param *.manager.seed 0
param *.n 3
param **.debug false
param **.coreDebug false
param *.playgroundSizeX 2500m
param *.playgroundSizeY 2500m
param *.playgroundSizeZ 50m
param *.annotations.draw true
param *.obstacles.debug false
param *.obstacles.obstacles "xmldoc(\"config.xml\", \"//AnalogueModel[@type='SimpleObstacleShadowing']/obstacles\")"
param *.manager.updateInterval 0.1s
param *.manager.host "\"localhost\""
param *.manager.port 9999
param *.manager.autoShutdown true
param *.rsu[0].mobility.x 50
param *.rsu[0].mobility.y 1025
param *.rsu[0].mobility.z 0
param *.rsu[1].mobility.x 50
param *.rsu[1].mobility.y 684
param *.rsu[1].mobility.z 0
param *.rsu[2].mobility.x 50
param *.rsu[2].mobility.y 340
param *.rsu[2].mobility.z 0
param *.rsu[0].mobility.x 325
param *.rsu[0].mobility.y 1025
param *.rsu[0].mobility.z 0
param *.rsu[*].applType "\"CNPTraCIDemoRSU11p\""
param **.rsu[*].app[*].typename "\"UdpBasicApp\""
param **.rsu[*].app[0].destPort 1000
param **.rsu[*].app[0].messageLength 1000B
param **.node[*].app[0].sendInterval 100ms
param **.rsu[*].app[0].sendInterval "uniform(5s, 10s)"
param **.rsu[*].app[0].sendInterval 100ms
param **.rsu[*].app[0].destAddresses "\"node[*]\""
param **.rsu[*].app[0].localAddress "\"\""
param **.rsu[*].app[0].localPort 1000
param **.*.app[0].localPort 1000
param **.rsu[*].app[0].replyDelay 0s
param **.eth[*].queue.typename "\"EtherQosQueue\""
param **.eth[*].queue.dataQueue.typename "\"DropTailQueue\""
param **.eth[*].queue.dataQueue.frameCapacity 10
param **.eth[*].mac.duplexMode true
param *.rsu[*].appl.headerLength "80 bit"
param *.rsu[*].appl.sendCCM true
param *.rsu[*].appl.dataOnSch true
param *.rsu[*].appl.CCMInterval 1s
param *.rsu[*].appl.CCMUserPriority 7
param *.rsu[*].appl.dataUserPriority 5
param *.connectionManager.sendDirect true
param *.connectionManager.maxInterfDist 700m
param *.connectionManager.drawMaxIntfDist true
param *.**.nic.mac1609_4.useServiceChannel true
param *.**.nic.mac1609_4.txPower 20mW
param *.**.nic.mac1609_4.bitrate 6Mbps
param *.**.nic.phy80211p.sensitivity -89dBm
param *.**.nic.phy80211p.useThermalNoise true
param *.**.nic.phy80211p.thermalNoise -110dBm
param *.**.nic.phy80211p.decider "xmldoc(\"config.xml\")"
param *.**.nic.phy80211p.analogueModels "xmldoc(\"config.xml\")"
param *.**.nic.phy80211p.usePropagationDelay true
param *.**.nic.phy80211p.maxt2cThresh 3.0
param *.**.nic.phy80211p.mint2cThresh 1.0
param *.**.nic.phy80211p.antenna "xmldoc(\"antenna.xml\", \"/root/Antenna[@id='monopole']\")"
param **.node[*].app[*].typename "\"UdpBasicApp\""
param **.node[*].app[0].destPort 1000
param **.node[*].app[0].messageLength 1000B
param **.node[*].app[0].sendInterval 100ms
param **.node[*].app[0].destAddresses "\"rsu[0]\""
param **.node[*].app[0].connectPort 1000
param **.node[0].app[0].startTime uniform(1700s,1700.5s)
param **.node[1].app[0].startTime uniform(1700.5s,1800s)
param **.node[2].app[0].startTime uniform(1800s,1800.5s)
param **.node[3].app[0].startTime uniform(1800.5s,1900s)
param **.node[*].app[0].sendInterval 200ms
param **.node[*].app[0].numCommands int(exponential(10))
param **.node[*].app[0].commandLength intWithUnit(exponential(10B))
param **.node[*].app[0].keyPressDelay exponential(0.1s)
param **.node[*].app[0].commandOutputLength intWithUnit(exponential(40B))
param **.node[*].app[0].thinkTime truncnormal(2s,3s)
param **.node[*].app[0].idleInterval truncnormal(3600s,1200s)
param **.node[*].app[0].reconnectInterval 30s
param *.node[*].applType "\"CNPTraCIDemo11p\""
param *.node[*].appl.headerLength "80 bit"
param *.node[*].appl.sendCCM true
param *.node[*].appl.dataOnSch true
param *.node[*].appl.CCMInterval 0.5s
param *.node[*].appl.maximumAcceleration 5.0
param *.node[*].appl.emergentManeuverTime 3.0
param *.node[*].appl.singleClusterFormationPeriod 12.0
param *.node[*3].appl.tesVeh false
param *.node[*].veinsmobilityType.debug true
param *.node[*].veinsmobility.x 0
param *.node[*].veinsmobility.y 0
param *.node[*].veinsmobility.z 1.895

vector 0 CNPNet.rsu[0].eth[0].queue.pauseQueue queueLength:vector ETV
attr interpolationmode sample-hold
attr title "queue length, vector"
vector 1 CNPNet.rsu[0].eth[0].queue.dataQueue queueLength:vector ETV
attr interpolationmode sample-hold
attr title "queue length, vector"
vector 2 CNPNet.rsu[0].eth[1].queue.pauseQueue queueLength:vector ETV
attr interpolationmode sample-hold
attr title "queue length, vector"
vector 3 CNPNet.rsu[0].eth[1].queue.dataQueue queueLength:vector ETV
attr interpolationmode sample-hold
attr title "queue length, vector"
vector 4 CNPNet.rsu[1].eth[0].queue.pauseQueue queueLength:vector ETV
attr interpolationmode sample-hold
attr title "queue length, vector"
vector 5 CNPNet.rsu[1].eth[0].queue.dataQueue queueLength:vector ETV
attr interpolationmode sample-hold
attr title "queue length, vector"
vector 6 CNPNet.rsu[1].eth[1].queue.pauseQueue queueLength:vector ETV
attr interpolationmode sample-hold
attr title "queue length, vector"
vector 7 CNPNet.rsu[1].eth[1].queue.dataQueue queueLength:vector ETV
attr interpolationmode sample-hold
attr title "queue length, vector"
vector 8 CNPNet.rsu[1].eth[2].queue.pauseQueue queueLength:vector ETV
attr interpolationmode sample-hold
attr title "queue length, vector"
vector 9 CNPNet.rsu[1].eth[2].queue.dataQueue queueLength:vector ETV
attr interpolationmode sample-hold
attr title "queue length, vector"
vector 10 CNPNet.rsu[2].eth[0].queue.pauseQueue queueLength:vector ETV
attr interpolationmode sample-hold
attr title "queue length, vector"
vector 11 CNPNet.rsu[2].eth[0].queue.dataQueue queueLength:vector ETV
attr interpolationmode sample-hold
attr title "queue length, vector"
vector 12 CNPNet.rsu[2].eth[1].queue.pauseQueue queueLength:vector ETV
attr interpolationmode sample-hold
attr title "queue length, vector"
vector 13 CNPNet.rsu[2].eth[1].queue.dataQueue queueLength:vector ETV
attr interpolationmode sample-hold
attr title "queue length, vector"
vector 14 CNPNet.MA[0].eth[0].queue.pauseQueue queueLength:vector ETV
attr interpolationmode sample-hold
attr title "queue length, vector"
vector 15 CNPNet.MA[0].eth[0].queue.dataQueue queueLength:vector ETV
attr interpolationmode sample-hold
attr title "queue length, vector"
vector 16 CNPNet.MA[0].eth[1].queue.pauseQueue queueLength:vector ETV
attr interpolationmode sample-hold
attr title "queue length, vector"
vector 17 CNPNet.MA[0].eth[1].queue.dataQueue queueLength:vector ETV
attr interpolationmode sample-hold
attr title "queue length, vector"
vector 18 CNPNet.MA[0].eth[2].queue.pauseQueue queueLength:vector ETV
attr interpolationmode sample-hold
attr title "queue length, vector"
vector 19 CNPNet.MA[0].eth[2].queue.dataQueue queueLength:vector ETV
attr interpolationmode sample-hold
attr title "queue length, vector"
vector 20 CNPNet.node[0].veinsmobility posx ETV
vector 21 CNPNet.node[0].veinsmobility posy ETV
vector 22 CNPNet.node[0].veinsmobility speed ETV
vector 23 CNPNet.node[0].veinsmobility acceleration ETV
vector 24 CNPNet.node[0].veinsmobility co2emission ETV
vector 25 CNPNet.rsu[2].eth[0].encap encapPk:vector(packetBytes) ETV
attr interpolationmode none
attr source encapPk
attr title "packets encapsulated, vector(packetBytes)"
vector 26 CNPNet.rsu[2].eth[0].queue.dataQueue packetReceived:vector(packetBytes) ETV
attr interpolationmode none
attr title "received packets, vector(packetBytes)"
vector 27 CNPNet.rsu[2].eth[0].queue.dataQueue queueingTime:vector ETV
attr interpolationmode none
attr title "queueing time, vector"
vector 28 CNPNet.rsu[2].eth[0].mac packetReceivedFromUpper:vector(packetBytes) ETV
attr interpolationmode none
attr source packetReceivedFromUpper
attr title "packet bytes from higher layer, vector(packetBytes)"
vector 29 CNPNet.rsu[2].eth[0].mac txPk:vector(packetBytes) ETV
attr interpolationmode none
attr source packetSentToLower
attr title "packets transmitted, vector(packetBytes)"
vector 30 CNPNet.MA[0].eth[2].mac rxPkOk:vector(packetBytes) ETV
attr interpolationmode none
attr source rxPkOk
attr title "packets received OK, vector(packetBytes)"
vector 31 CNPNet.MA[0].eth[2].mac passedUpPk:vector(packetBytes) ETV
attr interpolationmode none
attr source packetSentToUpper
attr title "packets passed to higher layer, vector(packetBytes)"
vector 32 CNPNet.MA[0].eth[2].encap decapPk:vector(packetBytes) ETV
attr interpolationmode none
attr source decapPk
attr title "packets decapsulated, vector(packetBytes)"
vector 33 CNPNet.node[1].veinsmobility posx ETV
vector 34 CNPNet.node[1].veinsmobility posy ETV
vector 35 CNPNet.node[1].veinsmobility speed ETV
vector 36 CNPNet.node[1].veinsmobility acceleration ETV
vector 37 CNPNet.node[1].veinsmobility co2emission ETV
vector 38 CNPNet.node[2].veinsmobility posx ETV
vector 39 CNPNet.node[2].veinsmobility posy ETV
vector 40 CNPNet.node[2].veinsmobility speed ETV
vector 41 CNPNet.node[2].veinsmobility acceleration ETV
vector 42 CNPNet.node[2].veinsmobility co2emission ETV
vector 43 CNPNet.node[3].veinsmobility posx ETV
vector 44 CNPNet.node[3].veinsmobility posy ETV
vector 45 CNPNet.node[3].veinsmobility speed ETV
vector 46 CNPNet.rsu[0].app[0] packetSent:vector(packetBytes) ETV
attr interpolationmode none
attr source packetSent
attr title "packets sent, vector(packetBytes)"
vector 47 CNPNet.rsu[0].udp packetSent:vector(packetBytes) ETV
attr interpolationmode none
attr source packetSent
attr title "packets sent, vector(packetBytes)"
vector 48 CNPNet.rsu[0].eth[0].encap encapPk:vector(packetBytes) ETV
attr interpolationmode none
attr source encapPk
attr title "packets encapsulated, vector(packetBytes)"
vector 49 CNPNet.rsu[0].eth[0].queue.dataQueue packetReceived:vector(packetBytes) ETV
attr interpolationmode none
attr title "received packets, vector(packetBytes)"
vector 50 CNPNet.rsu[0].eth[0].queue.dataQueue queueingTime:vector ETV
attr interpolationmode none
attr title "queueing time, vector"
vector 51 CNPNet.rsu[0].eth[0].mac packetReceivedFromUpper:vector(packetBytes) ETV
attr interpolationmode none
attr source packetReceivedFromUpper
attr title "packet bytes from higher layer, vector(packetBytes)"
vector 52 CNPNet.rsu[0].eth[0].mac txPk:vector(packetBytes) ETV
attr interpolationmode none
attr source packetSentToLower
attr title "packets transmitted, vector(packetBytes)"
vector 53 CNPNet.MA[0].eth[0].mac rxPkOk:vector(packetBytes) ETV
attr interpolationmode none
attr source rxPkOk
attr title "packets received OK, vector(packetBytes)"
vector 54 CNPNet.MA[0].eth[0].mac passedUpPk:vector(packetBytes) ETV
attr interpolationmode none
attr source packetSentToUpper
attr title "packets passed to higher layer, vector(packetBytes)"
vector 55 CNPNet.MA[0].eth[0].encap decapPk:vector(packetBytes) ETV
attr interpolationmode none
attr source decapPk
attr title "packets decapsulated, vector(packetBytes)"
vector 56 CNPNet.node[3].veinsmobility acceleration ETV
vector 57 CNPNet.node[3].veinsmobility co2emission ETV
vector 58 CNPNet.rsu[1].app[0] packetSent:vector(packetBytes) ETV
attr interpolationmode none
attr source packetSent
attr title "packets sent, vector(packetBytes)"
vector 59 CNPNet.rsu[1].udp packetSent:vector(packetBytes) ETV
attr interpolationmode none
attr source packetSent
attr title "packets sent, vector(packetBytes)"
vector 60 CNPNet.rsu[1].eth[0].encap encapPk:vector(packetBytes) ETV
attr interpolationmode none
attr source encapPk
attr title "packets encapsulated, vector(packetBytes)"
vector 61 CNPNet.rsu[1].eth[0].queue.dataQueue packetReceived:vector(packetBytes) ETV
attr interpolationmode none
attr title "received packets, vector(packetBytes)"
vector 62 CNPNet.rsu[1].eth[0].queue.dataQueue queueingTime:vector ETV
attr interpolationmode none
attr title "queueing time, vector"
vector 63 CNPNet.rsu[1].eth[0].mac packetReceivedFromUpper:vector(packetBytes) ETV
attr interpolationmode none
attr source packetReceivedFromUpper
attr title "packet bytes from higher layer, vector(packetBytes)"
vector 64 CNPNet.rsu[1].eth[0].mac txPk:vector(packetBytes) ETV
attr interpolationmode none
attr source packetSentToLower
attr title "packets transmitted, vector(packetBytes)"
vector 65 CNPNet.MA[0].eth[1].mac rxPkOk:vector(packetBytes) ETV
attr interpolationmode none
attr source rxPkOk
attr title "packets received OK, vector(packetBytes)"
vector 66 CNPNet.MA[0].eth[1].mac passedUpPk:vector(packetBytes) ETV
attr interpolationmode none
attr source packetSentToUpper
attr title "packets passed to higher layer, vector(packetBytes)"
vector 67 CNPNet.MA[0].eth[1].encap decapPk:vector(packetBytes) ETV
attr interpolationmode none
attr source decapPk
attr title "packets decapsulated, vector(packetBytes)"
vector 68 CNPNet.rsu[2].app[0] packetSent:vector(packetBytes) ETV
attr interpolationmode none
attr source packetSent
attr title "packets sent, vector(packetBytes)"
vector 69 CNPNet.rsu[2].udp packetSent:vector(packetBytes) ETV
attr interpolationmode none
attr source packetSent
attr title "packets sent, vector(packetBytes)"
vector 70 CNPNet.node[0].udp packetReceived:vector(packetBytes) ETV
attr interpolationmode none
attr source packetReceived
attr title "packets received, vector(packetBytes)"
vector 71 CNPNet.node[0].udp droppedPkWrongPort:vector(count) ETV
attr interpolationmode none
attr source packetDropReasonIsNoPortFound(packetDropped)
attr title "packets dropped (wrong port), vector(count)"
vector 72 CNPNet.node[4].veinsmobility posx ETV
vector 73 CNPNet.node[4].veinsmobility posy ETV
vector 74 CNPNet.node[4].app[0] packetSent:vector(packetBytes) ETV
attr interpolationmode none
attr source packetSent
attr title "packets sent, vector(packetBytes)"
vector 75 CNPNet.node[4].udp packetSent:vector(packetBytes) ETV
attr interpolationmode none
attr source packetSent
attr title "packets sent, vector(packetBytes)"
vector 76 CNPNet.node[4].veinsmobility speed ETV
vector 77 CNPNet.node[4].veinsmobility acceleration ETV
vector 78 CNPNet.node[4].veinsmobility co2emission ETV
vector 79 CNPNet.node[5].veinsmobility posx ETV
vector 80 CNPNet.node[5].veinsmobility posy ETV
vector 81 CNPNet.node[5].app[0] packetSent:vector(packetBytes) ETV
attr interpolationmode none
attr source packetSent
attr title "packets sent, vector(packetBytes)"
vector 82 CNPNet.node[5].udp packetSent:vector(packetBytes) ETV
attr interpolationmode none
attr source packetSent
attr title "packets sent, vector(packetBytes)"
vector 83 CNPNet.node[5].veinsmobility speed ETV
vector 84 CNPNet.node[5].veinsmobility acceleration ETV
vector 85 CNPNet.node[5].veinsmobility co2emission ETV
vector 86 CNPNet.node[6].veinsmobility posx ETV
vector 87 CNPNet.node[6].veinsmobility posy ETV
vector 88 CNPNet.node[6].app[0] packetSent:vector(packetBytes) ETV
attr interpolationmode none
attr source packetSent
attr title "packets sent, vector(packetBytes)"
vector 89 CNPNet.node[6].udp packetSent:vector(packetBytes) ETV
attr interpolationmode none
attr source packetSent
attr title "packets sent, vector(packetBytes)"
vector 90 CNPNet.node[6].veinsmobility speed ETV
vector 91 CNPNet.node[6].veinsmobility acceleration ETV
vector 92 CNPNet.node[6].veinsmobility co2emission ETV
vector 93 CNPNet.node[7].veinsmobility posx ETV
vector 94 CNPNet.node[7].veinsmobility posy ETV
vector 95 CNPNet.node[7].app[0] packetSent:vector(packetBytes) ETV
attr interpolationmode none
attr source packetSent
attr title "packets sent, vector(packetBytes)"
vector 96 CNPNet.node[7].udp packetSent:vector(packetBytes) ETV
attr interpolationmode none
attr source packetSent
attr title "packets sent, vector(packetBytes)"
vector 97 CNPNet.node[7].veinsmobility speed ETV
vector 98 CNPNet.node[7].veinsmobility acceleration ETV
vector 99 CNPNet.node[7].veinsmobility co2emission ETV
vector 100 CNPNet.node[8].veinsmobility posx ETV
vector 101 CNPNet.node[8].veinsmobility posy ETV
vector 102 CNPNet.node[8].app[0] packetSent:vector(packetBytes) ETV
attr interpolationmode none
attr source packetSent
attr title "packets sent, vector(packetBytes)"
vector 103 CNPNet.node[8].udp packetSent:vector(packetBytes) ETV
attr interpolationmode none
attr source packetSent
attr title "packets sent, vector(packetBytes)"
vector 104 CNPNet.node[8].veinsmobility speed ETV
vector 105 CNPNet.node[8].veinsmobility acceleration ETV
vector 106 CNPNet.node[8].veinsmobility co2emission ETV
vector 107 CNPNet.node[9].veinsmobility posx ETV
vector 108 CNPNet.node[9].veinsmobility posy ETV
vector 109 CNPNet.node[9].app[0] packetSent:vector(packetBytes) ETV
attr interpolationmode none
attr source packetSent
attr title "packets sent, vector(packetBytes)"
vector 110 CNPNet.node[9].udp packetSent:vector(packetBytes) ETV
attr interpolationmode none
attr source packetSent
attr title "packets sent, vector(packetBytes)"
vector 111 CNPNet.node[9].veinsmobility speed ETV
vector 112 CNPNet.node[9].veinsmobility acceleration ETV
vector 113 CNPNet.node[9].veinsmobility co2emission ETV
vector 114 CNPNet.node[10].veinsmobility posx ETV
vector 115 CNPNet.node[10].veinsmobility posy ETV
vector 116 CNPNet.node[10].app[0] packetSent:vector(packetBytes) ETV
attr interpolationmode none
attr source packetSent
attr title "packets sent, vector(packetBytes)"
vector 117 CNPNet.node[10].udp packetSent:vector(packetBytes) ETV
attr interpolationmode none
attr source packetSent
attr title "packets sent, vector(packetBytes)"
vector 118 CNPNet.node[10].veinsmobility speed ETV
vector 119 CNPNet.node[10].veinsmobility acceleration ETV
vector 120 CNPNet.node[10].veinsmobility co2emission ETV
vector 121 CNPNet.node[11].veinsmobility posx ETV
vector 122 CNPNet.node[11].veinsmobility posy ETV
vector 123 CNPNet.node[11].app[0] packetSent:vector(packetBytes) ETV
attr interpolationmode none
attr source packetSent
attr title "packets sent, vector(packetBytes)"
vector 124 CNPNet.node[11].udp packetSent:vector(packetBytes) ETV
attr interpolationmode none
attr source packetSent
attr title "packets sent, vector(packetBytes)"
vector 125 CNPNet.node[11].veinsmobility speed ETV
vector 126 CNPNet.node[11].veinsmobility acceleration ETV
vector 127 CNPNet.node[11].veinsmobility co2emission ETV
vector 128 CNPNet.node[12].veinsmobility posx ETV
vector 129 CNPNet.node[12].veinsmobility posy ETV
vector 130 CNPNet.node[12].app[0] packetSent:vector(packetBytes) ETV
attr interpolationmode none
attr source packetSent
attr title "packets sent, vector(packetBytes)"
vector 131 CNPNet.node[12].udp packetSent:vector(packetBytes) ETV
attr interpolationmode none
attr source packetSent
attr title "packets sent, vector(packetBytes)"
vector 132 CNPNet.node[12].veinsmobility speed ETV
vector 133 CNPNet.node[12].veinsmobility acceleration ETV
vector 134 CNPNet.node[12].veinsmobility co2emission ETV
vector 135 CNPNet.node[13].veinsmobility posx ETV
vector 136 CNPNet.node[13].veinsmobility posy ETV
vector 137 CNPNet.node[13].app[0] packetSent:vector(packetBytes) ETV
attr interpolationmode none
attr source packetSent
attr title "packets sent, vector(packetBytes)"
vector 138 CNPNet.node[13].udp packetSent:vector(packetBytes) ETV
attr interpolationmode none
attr source packetSent
attr title "packets sent, vector(packetBytes)"
vector 139 CNPNet.node[13].veinsmobility speed ETV
vector 140 CNPNet.node[13].veinsmobility acceleration ETV
vector 141 CNPNet.node[13].veinsmobility co2emission ETV
vector 142 CNPNet.node[14].veinsmobility posx ETV
vector 143 CNPNet.node[14].veinsmobility posy ETV
vector 144 CNPNet.node[14].app[0] packetSent:vector(packetBytes) ETV
attr interpolationmode none
attr source packetSent
attr title "packets sent, vector(packetBytes)"
vector 145 CNPNet.node[14].udp packetSent:vector(packetBytes) ETV
attr interpolationmode none
attr source packetSent
attr title "packets sent, vector(packetBytes)"
vector 146 CNPNet.node[14].veinsmobility speed ETV
vector 147 CNPNet.node[14].veinsmobility acceleration ETV
vector 148 CNPNet.node[14].veinsmobility co2emission ETV
vector 149 CNPNet.node[15].veinsmobility posx ETV
vector 150 CNPNet.node[15].veinsmobility posy ETV
vector 151 CNPNet.node[15].app[0] packetSent:vector(packetBytes) ETV
attr interpolationmode none
attr source packetSent
attr title "packets sent, vector(packetBytes)"
vector 152 CNPNet.node[15].udp packetSent:vector(packetBytes) ETV
attr interpolationmode none
attr source packetSent
attr title "packets sent, vector(packetBytes)"
vector 153 CNPNet.node[15].veinsmobility speed ETV
vector 154 CNPNet.node[15].veinsmobility acceleration ETV
vector 155 CNPNet.node[15].veinsmobility co2emission ETV
vector 156 CNPNet.node[16].veinsmobility posx ETV
vector 157 CNPNet.node[16].veinsmobility posy ETV
vector 158 CNPNet.node[16].app[0] packetSent:vector(packetBytes) ETV
attr interpolationmode none
attr source packetSent
attr title "packets sent, vector(packetBytes)"
vector 159 CNPNet.node[16].udp packetSent:vector(packetBytes) ETV
attr interpolationmode none
attr source packetSent
attr title "packets sent, vector(packetBytes)"
vector 160 CNPNet.node[16].veinsmobility speed ETV
vector 161 CNPNet.node[16].veinsmobility acceleration ETV
vector 162 CNPNet.node[16].veinsmobility co2emission ETV
vector 163 CNPNet.node[17].veinsmobility posx ETV
vector 164 CNPNet.node[17].veinsmobility posy ETV
vector 165 CNPNet.node[17].app[0] packetSent:vector(packetBytes) ETV
attr interpolationmode none
attr source packetSent
attr title "packets sent, vector(packetBytes)"
vector 166 CNPNet.node[17].udp packetSent:vector(packetBytes) ETV
attr interpolationmode none
attr source packetSent
attr title "packets sent, vector(packetBytes)"
vector 167 CNPNet.node[17].veinsmobility speed ETV
vector 168 CNPNet.node[17].veinsmobility acceleration ETV
vector 169 CNPNet.node[17].veinsmobility co2emission ETV
vector 170 CNPNet.node[18].veinsmobility posx ETV
vector 171 CNPNet.node[18].veinsmobility posy ETV
vector 172 CNPNet.node[18].app[0] packetSent:vector(packetBytes) ETV
attr interpolationmode none
attr source packetSent
attr title "packets sent, vector(packetBytes)"
vector 173 CNPNet.node[18].udp packetSent:vector(packetBytes) ETV
attr interpolationmode none
attr source packetSent
attr title "packets sent, vector(packetBytes)"
vector 174 CNPNet.node[18].veinsmobility speed ETV
vector 175 CNPNet.node[18].veinsmobility acceleration ETV
vector 176 CNPNet.node[18].veinsmobility co2emission ETV
vector 177 CNPNet.node[19].veinsmobility posx ETV
vector 178 CNPNet.node[19].veinsmobility posy ETV
vector 179 CNPNet.node[19].app[0] packetSent:vector(packetBytes) ETV
attr interpolationmode none
attr source packetSent
attr title "packets sent, vector(packetBytes)"
vector 180 CNPNet.node[19].udp packetSent:vector(packetBytes) ETV
attr interpolationmode none
attr source packetSent
attr title "packets sent, vector(packetBytes)"
vector 181 CNPNet.node[19].veinsmobility speed ETV
vector 182 CNPNet.node[19].veinsmobility acceleration ETV
vector 183 CNPNet.node[19].veinsmobility co2emission ETV
vector 184 CNPNet.node[20].veinsmobility posx ETV
vector 185 CNPNet.node[20].veinsmobility posy ETV
vector 186 CNPNet.node[20].app[0] packetSent:vector(packetBytes) ETV
attr interpolationmode none
attr source packetSent
attr title "packets sent, vector(packetBytes)"
vector 187 CNPNet.node[20].udp packetSent:vector(packetBytes) ETV
attr interpolationmode none
attr source packetSent
attr title "packets sent, vector(packetBytes)"
vector 188 CNPNet.node[20].veinsmobility speed ETV
vector 189 CNPNet.node[20].veinsmobility acceleration ETV
vector 190 CNPNet.node[20].veinsmobility co2emission ETV
vector 191 CNPNet.node[21].veinsmobility posx ETV
vector 192 CNPNet.node[21].veinsmobility posy ETV
vector 193 CNPNet.node[21].app[0] packetSent:vector(packetBytes) ETV
attr interpolationmode none
attr source packetSent
attr title "packets sent, vector(packetBytes)"
vector 194 CNPNet.node[21].udp packetSent:vector(packetBytes) ETV
attr interpolationmode none
attr source packetSent
attr title "packets sent, vector(packetBytes)"
vector 195 CNPNet.node[21].veinsmobility speed ETV
vector 196 CNPNet.node[21].veinsmobility acceleration ETV
vector 197 CNPNet.node[21].veinsmobility co2emission ETV
vector 198 CNPNet.node[22].veinsmobility posx ETV
vector 199 CNPNet.node[22].veinsmobility posy ETV
vector 200 CNPNet.node[22].app[0] packetSent:vector(packetBytes) ETV
attr interpolationmode none
attr source packetSent
attr title "packets sent, vector(packetBytes)"
vector 201 CNPNet.node[22].udp packetSent:vector(packetBytes) ETV
attr interpolationmode none
attr source packetSent
attr title "packets sent, vector(packetBytes)"
vector 202 CNPNet.node[22].veinsmobility speed ETV
vector 203 CNPNet.node[22].veinsmobility acceleration ETV
vector 204 CNPNet.node[22].veinsmobility co2emission ETV
vector 205 CNPNet.node[23].veinsmobility posx ETV
vector 206 CNPNet.node[23].veinsmobility posy ETV
vector 207 CNPNet.node[23].app[0] packetSent:vector(packetBytes) ETV
attr interpolationmode none
attr source packetSent
attr title "packets sent, vector(packetBytes)"
vector 208 CNPNet.node[23].udp packetSent:vector(packetBytes) ETV
attr interpolationmode none
attr source packetSent
attr title "packets sent, vector(packetBytes)"
vector 209 CNPNet.node[23].veinsmobility speed ETV
vector 210 CNPNet.node[23].veinsmobility acceleration ETV
vector 211 CNPNet.node[23].veinsmobility co2emission ETV
vector 212 CNPNet.node[24].veinsmobility posx ETV
vector 213 CNPNet.node[24].veinsmobility posy ETV
vector 214 CNPNet.node[24].app[0] packetSent:vector(packetBytes) ETV
attr interpolationmode none
attr source packetSent
attr title "packets sent, vector(packetBytes)"
vector 215 CNPNet.node[24].udp packetSent:vector(packetBytes) ETV
attr interpolationmode none
attr source packetSent
attr title "packets sent, vector(packetBytes)"
vector 216 CNPNet.node[24].veinsmobility speed ETV
vector 217 CNPNet.node[24].veinsmobility acceleration ETV
vector 218 CNPNet.node[24].veinsmobility co2emission ETV
vector 219 CNPNet.node[25].veinsmobility posx ETV
vector 220 CNPNet.node[25].veinsmobility posy ETV
vector 221 CNPNet.node[25].app[0] packetSent:vector(packetBytes) ETV
attr interpolationmode none
attr source packetSent
attr title "packets sent, vector(packetBytes)"
vector 222 CNPNet.node[25].udp packetSent:vector(packetBytes) ETV
attr interpolationmode none
attr source packetSent
attr title "packets sent, vector(packetBytes)"
vector 223 CNPNet.node[25].veinsmobility speed ETV
vector 224 CNPNet.node[25].veinsmobility acceleration ETV
vector 225 CNPNet.node[25].veinsmobility co2emission ETV
vector 226 CNPNet.node[26].veinsmobility posx ETV
vector 227 CNPNet.node[26].veinsmobility posy ETV
vector 228 CNPNet.node[26].app[0] packetSent:vector(packetBytes) ETV
attr interpolationmode none
attr source packetSent
attr title "packets sent, vector(packetBytes)"
vector 229 CNPNet.node[26].udp packetSent:vector(packetBytes) ETV
attr interpolationmode none
attr source packetSent
attr title "packets sent, vector(packetBytes)"
vector 230 CNPNet.node[26].veinsmobility speed ETV
vector 231 CNPNet.node[26].veinsmobility acceleration ETV
vector 232 CNPNet.node[26].veinsmobility co2emission ETV
vector 233 CNPNet.node[27].veinsmobility posx ETV
vector 234 CNPNet.node[27].veinsmobility posy ETV
vector 235 CNPNet.node[27].app[0] packetSent:vector(packetBytes) ETV
attr interpolationmode none
attr source packetSent
attr title "packets sent, vector(packetBytes)"
vector 236 CNPNet.node[27].udp packetSent:vector(packetBytes) ETV
attr interpolationmode none
attr source packetSent
attr title "packets sent, vector(packetBytes)"
vector 237 CNPNet.node[27].veinsmobility speed ETV
vector 238 CNPNet.node[27].veinsmobility acceleration ETV
vector 239 CNPNet.node[27].veinsmobility co2emission ETV
vector 240 CNPNet.node[28].veinsmobility posx ETV
vector 241 CNPNet.node[28].veinsmobility posy ETV
vector 242 CNPNet.node[28].app[0] packetSent:vector(packetBytes) ETV
attr interpolationmode none
attr source packetSent
attr title "packets sent, vector(packetBytes)"
vector 243 CNPNet.node[28].udp packetSent:vector(packetBytes) ETV
attr interpolationmode none
attr source packetSent
attr title "packets sent, vector(packetBytes)"
vector 244 CNPNet.node[28].veinsmobility speed ETV
vector 245 CNPNet.node[28].veinsmobility acceleration ETV
vector 246 CNPNet.node[28].veinsmobility co2emission ETV
vector 247 CNPNet.node[29].veinsmobility posx ETV
vector 248 CNPNet.node[29].veinsmobility posy ETV
vector 249 CNPNet.node[29].app[0] packetSent:vector(packetBytes) ETV
attr interpolationmode none
attr source packetSent
attr title "packets sent, vector(packetBytes)"
vector 250 CNPNet.node[29].udp packetSent:vector(packetBytes) ETV
attr interpolationmode none
attr source packetSent
attr title "packets sent, vector(packetBytes)"
vector 251 CNPNet.node[29].veinsmobility speed ETV
vector 252 CNPNet.node[29].veinsmobility acceleration ETV
vector 253 CNPNet.node[29].veinsmobility co2emission ETV
vector 254 CNPNet.node[30].veinsmobility posx ETV
vector 255 CNPNet.node[30].veinsmobility posy ETV
vector 256 CNPNet.node[30].app[0] packetSent:vector(packetBytes) ETV
attr interpolationmode none
attr source packetSent
attr title "packets sent, vector(packetBytes)"
vector 257 CNPNet.node[30].udp packetSent:vector(packetBytes) ETV
attr interpolationmode none
attr source packetSent
attr title "packets sent, vector(packetBytes)"
vector 258 CNPNet.node[30].veinsmobility speed ETV
vector 259 CNPNet.node[30].veinsmobility acceleration ETV
vector 260 CNPNet.node[30].veinsmobility co2emission ETV
vector 261 CNPNet.node[31].veinsmobility posx ETV
vector 262 CNPNet.node[31].veinsmobility posy ETV
vector 263 CNPNet.node[31].app[0] packetSent:vector(packetBytes) ETV
attr interpolationmode none
attr source packetSent
attr title "packets sent, vector(packetBytes)"
vector 264 CNPNet.node[31].udp packetSent:vector(packetBytes) ETV
attr interpolationmode none
attr source packetSent
attr title "packets sent, vector(packetBytes)"
vector 265 CNPNet.node[31].veinsmobility speed ETV
vector 266 CNPNet.node[31].veinsmobility acceleration ETV
vector 267 CNPNet.node[31].veinsmobility co2emission ETV
70	1686	8.605740010039	1008
70	4775	17.323250620137	1008
70	9117	24.505713423083	1008
70	13607	30.630608652027	1008
70	22439	38.805805020318	1008
70	32424	45.705779335245	1008
71	1686	8.605740010039	1
71	4775	17.323250620137	2
71	9117	24.505713423083	3
71	13607	30.630608652027	4
71	22439	38.805805020318	5
71	32424	45.705779335245	6
24	26	0.3	2.2420559101067
24	35	0.4	2.6945680782324
24	44	0.5	3.0435430686703
24	54	0.6	3.5558119895565
24	63	0.7	3.6648968244183
24	72	0.8	4.3078389920243
24	81	0.9	4.1424682738883
24	93	1	5.1395834398293
24	214	1.1	5.002122431678
24	223	1.2	5.146353587138
24	232	1.3	6.1638293588069
24	241	1.4	6.3949938485477
24	250	1.5	7.3051722849768
24	259	1.6	5.4467860409437
24	268	1.7	9.0777369147956
24	277	1.8	5.6951606816073
24	286	1.9	8.991510178157
24	308	2	8.9297976590767
24	317	2.1	8.8716312936301
24	326	2.2	7.5996642338313
24	335	2.3	7.7302338567401
24	344	2.4	9.5478101391154
24	353	2.5	10.186970509758
24	362	2.6	10.026633200848
24	372	2.7	11.469784990365
24	383	2.8	8.9995289543495
24	394	2.9	12.570074782198
24	405	3	10.849978359058
24	417	3.1	13.164423994089
24	428	3.2	9.2525861979167
24	439	3.3	15.626817159545
24	450	3.4	10.447758789562
24	461	3.5	13.834092284439
24	472	3.6	11.527704523246
24	483	3.7	14.130646933375
24	494	3.8	6.0218875307106
24	647	3.9	1.6652776445758
24	658	4	3.1625977600836
24	669	4.1	2.3853155946821
24	680	4.2	0.973
24	691	4.3	7.4817924321547
24	702	4.4	0.973
24	713	4.5	4.4216331222528
24	724	4.6	0.973
24	735	4.7	6.3641084320714
24	746	4.8	2.7046742505357
24	757	4.9	0.973
24	768	5	3.4820041875022
24	779	5.1	1.4170213500744
24	791	5.2	0.973
24	804	5.3	0.973
24	817	5.4	2.5825925005495
24	830	5.5	1.3116477742805
24	843	5.6	0.973
24	856	5.7	4.4869362466947
24	869	5.8	4.6196796936756
24	882	5.9	2.3763993188768
24	895	6	1.9402998292039
24	909	6.1	1.0740289781257
24	922	6.2	0.973
24	935	6.3	8.2813967376864
24	948	6.4	0.973
24	961	6.5	8.208022616745
24	974	6.6	0.973
24	987	6.7	4.6611736980972
24	1000	6.8	0.973
24	1013	6.9	6.5075851143882
24	1029	7	0.973
24	1208	7.1	3.0688075397956
24	1221	7.2	3.6537176720579
24	1234	7.3	6.4299429956961
24	1247	7.4	0.973
24	1260	7.5	1.1930263178825
24	1273	7.6	6.3832655670141
24	1287	7.7	5.4753596205775
24	1318	7.8	1.3486137706223
24	1333	7.9	2.0378876608048
24	1364	8	0.973
24	1379	8.1	0.973
24	1394	8.2	5.5815321156166
24	1410	8.3	3.4596585729975
24	1425	8.4	0.973
24	1443	8.5	4.1786553504995
24	1656	8.6	1.6061373588955
24	1707	8.7	6.4741453926317
24	1734	8.8	3.3934111383772
24	1749	8.9	2.1575723175978
24	1776	9	0.973
24	1791	9.1	0.973
24	1806	9.2	5.2134626480126
24	1821	9.3	2.046517707377
24	1836	9.4	0.973
24	1851	9.5	2.8842804627914
24	1866	9.6	6.5939891816803
24	1881	9.7	1.194819023358
24	1908	9.8	0.973
24	1923	9.9	1.0909647888513
24	1950	10	3.6028080392822
24	1965	10.1	0.973
24	1986	10.2	2.3247194382217
24	2007	10.3	1.1038083661962
24	2028	10.4	2.8250881497852
24	2049	10.5	6.3323036326564
24	2071	10.6	0.973
24	2092	10.7	0.973
24	2114	10.8	2.6026888949206
24	2282	10.9	1.2840365500597
24	2461	11	4.3273518222436
24	2481	11.1	4.9454069755576
24	2501	11.2	3.7191962310158
24	2521	11.3	0.973
24	2541	11.4	0.973
24	2561	11.5	7.9397671242619
24	2581	11.6	0.973
24	2601	11.7	7.439543802105
24	2621	11.8	0.973
24	2641	11.9	1.2777198118257
24	2661	12	5.5254799525165
24	2681	12.1	4.8752020613619
24	2701	12.2	1.6523160545748
24	2721	12.3	0.973
24	2741	12.4	5.7281360565553
24	2761	12.5	0.973
24	2781	12.6	2.7181850418612
24	2807	12.7	0.973
24	2833	12.8	6.5154264050019
24	2859	12.9	0.973
24	2885	13	1.0934437040946
24	2912	13.1	3.6159865290113
24	2938	13.2	0.973
24	2964	13.3	0.973
24	2990	13.4	3.1463419714101
24	3031	13.5	3.2715447763705
24	3057	13.6	3.9143338739612
24	3083	13.7	0.973
24	3359	13.8	7.4364447142574
24	3384	13.9	0.973
24	3409	14	5.3531750234971
24	3434	14.1	0.973
24	3459	14.2	5.4091200905166
24	3484	14.3	0.973
24	3509	14.4	6.5643458965526
24	3546	14.5	0.973
24	3571	14.6	1.7658488632475
24	3596	14.7	6.1921068880516
24	3621	14.8	0.973
24	3646	14.9	7.2892720276015
24	3671	15	0.973
24	3696	15.1	5.7270380198479
24	3727	15.2	0.973
24	3758	15.3	4.3038608751834
24	3789	15.4	0.973
24	3832	15.5	0.973
24	3863	15.6	4.0442934954886
24	3895	15.7	5.5412195996015
24	3926	15.8	0.973
24	3972	15.9	6.1337226680627
24	4003	16	2.5824911307916
24	4034	16.1	1.1790478434
24	4065	16.2	1.534358208311
24	4277	16.3	0.973
24	4440	16.4	1.9993659078126
24	4471	16.5	2.4204696675271
24	4501	16.6	0.973
24	4531	16.7	7.337683209135
24	4561	16.8	0.973
24	4603	16.9	4.7350895981211
24	4633	17	0.973
24	4663	17.1	3.2222574433342
24	4693	17.2	0.973
24	4723	17.3	5.3614606548581
24	4808	17.4	0.973
24	4838	17.5	9.1188772528387
24	4868	17.6	0.973
24	4904	17.7	3.9752240508769
24	4940	17.8	2.9223578014148
24	4988	17.9	3.2119795146948
24	5024	18	0.973
24	5173	18.1	0.973
24	5209	18.2	2.2139214398744
24	5245	18.3	5.8549706935958
24	5281	18.4	0.973
24	5621	18.5	0.973
24	5656	18.6	3.1331912073188
24	5691	18.7	8.3245273270631
24	5726	18.8	2.2739230846437
24	5762	18.9	2.1703440597252
24	5797	19	1.3298447360692
24	5832	19.1	0.973
24	5867	19.2	4.6328434766755
24	5902	19.3	0.973
24	5937	19.4	2.9088720653084
24	5972	19.5	0.973
24	6007	19.6	0.973
24	6057	19.7	8.2595404820057
24	6092	19.8	0.973
24	6127	19.9	0.973
24	6162	20	0.973
24	6198	20.1	2.9157747563779
24	6239	20.2	6.3395045220165
24	6280	20.3	0.973
24	6321	20.4	2.0871714280658
24	6362	20.5	3.6791707893948
24	6403	20.6	0.973
24	6457	20.7	4.425018277447
24	6498	20.8	0.973
24	6661	20.9	4.4610945811042
24	6702	21	4.4233865300668
24	6743	21.1	3.9820718293491
24	6784	21.2	0.973
24	6825	21.3	0.973
24	6866	21.4	5.1427078157672
24	6907	21.5	2.0499965058365
24	6948	21.6	0.973
24	7332	21.7	2.3559182672234
24	7372	21.8	7.1235706095596
24	7412	21.9	0.973
24	7452	22	3.8131961453934
24	7492	22.1	4.0591552121778
24	7532	22.2	2.8384710033
24	7572	22.3	0.973
24	7612	22.4	6.8552123160445
24	7652	22.5	1.6102340564459
24	7693	22.6	0.973
24	7740	22.7	2.6670419505983
24	7786	22.8	0.973
24	7832	22.9	5.0534008246533
24	7878	23	0.973
24	7924	23.1	1.7843367299729
24	7971	23.2	2.9108781984556
24	8375	23.3	0.973
24	8420	23.4	2.5595675088933
24	8465	23.5	5.7678671172885
24	8510	23.6	0.973
24	8555	23.7	4.4816423949203
24	8600	23.8	3.5982086590641
24	8645	23.9	0.973
24	8690	24	5.3536499137037
24	8867	24.1	2.118712276537
24	8912	24.2	0.973
24	8957	24.3	0.973
24	9002	24.4	1.9486190499908
24	9051	24.5	8.7327045745358
24	9162	24.6	0.973
24	9207	24.7	1.9835641096866
24	9252	24.8	0.973
24	9297	24.9	3.6267679086383
24	9342	25	4.8966891306845
24	9389	25.1	0.973
24	9440	25.2	6.4803873316096
24	9491	25.3	0.973
24	9542	25.4	0.973
24	9593	25.5	6.6047576112047
24	9786	25.6	0.973
24	9837	25.7	3.4412693960074
24	9903	25.8	0.973
24	9955	25.9	0.973
24	10006	26	5.6632224509459
24	10057	26.1	0.973
24	10108	26.2	1.3124063190355
24	10544	26.3	0.973
24	10594	26.4	2.2501469313483
24	10644	26.5	7.1697234322457
24	10694	26.6	0.973
24	10744	26.7	2.8305236391915
24	10806	26.8	3.6170064266797
24	10856	26.9	2.4830902836102
24	10906	27	3.5219413159773
24	10956	27.1	0.973
24	11006	27.2	1.3712074093199
24	11056	27.3	4.4847435061383
24	11106	27.4	0.973
24	11156	27.5	6.5528219784274
24	11207	27.6	0.973
24	11263	27.7	0.973
24	11331	27.8	8.8513886925093
24	11387	27.9	2.5822365414058
24	11595	28	0.973
24	11651	28.1	4.5188091468884
24	11707	28.2	0.973
24	11764	28.3	0.973
24	11820	28.4	7.577159171028
24	11876	28.5	1.4429481026465
24	12344	28.6	0.973
24	12399	28.7	5.2426156662622
24	12455	28.8	0.973
24	12510	28.9	0.973
24	12565	29	6.781838874511
24	12620	29.1	1.553369703295
24	12675	29.2	0.973
24	12730	29.3	2.4235687967948
24	12785	29.4	6.0344385101375
24	12840	29.5	1.5146827980851
24	12910	29.6	0.973
24	12965	29.7	6.2100270401474
24	13020	29.8	0.973
24	13075	29.9	5.7622812561695
24	13130	30	2.541966906695
24	13186	30.1	0.973
24	13247	30.2	8.7475679675649
24	13308	30.3	0.973
24	13369	30.4	3.2162460893329
24	13430	30.5	1.1867883289547
24	13503	30.6	0.973
24	13649	30.7	1.8166130673018
24	13872	30.8	9.615974653538
24	13933	30.9	0.973
24	14160	31	6.2943297870894
24	14221	31.1	0.973
24	14282	31.2	1.1637631486037
24	14343	31.3	1.8289855912164
24	14404	31.4	2.2076034525831
24	14465	31.5	2.2986399955216
24	14538	31.6	0.973
24	14599	31.7	1.678004782733
24	14660	31.8	4.341212854472
24	14721	31.9	0.973
24	15211	32	7.0490309401779
24	15271	32.1	0.973
24	15331	32.2	0.973
24	15391	32.3	8.7503355217185
24	15451	32.4	0.973
24	15511	32.5	0.973
24	15573	32.6	8.9012634155902
24	15639	32.7	0.973
24	15705	32.8	6.3140758801716
24	15771	32.9	2.0879901491688
24	15837	33	0.973
24	15903	33.1	4.6391358264485
24	15969	33.2	0.973
24	16035	33.3	2.4867169482734
24	16102	33.4	1.9839674035325
24	16168	33.5	5.0613534947411
24	16234	33.6	0.973
24	16746	33.7	2.728075059038
24	16811	33.8	7.2947751763486
24	16876	33.9	2.4535212490777
24	17118	34	1.4629977956821
24	17183	34.1	0.973
24	17248	34.2	0.973
24	17328	34.3	4.0887470962072
24	17393	34.4	0.973
24	17458	34.5	0.973
24	17523	34.6	3.73656069325
24	17588	34.7	3.8496229509846
24	17653	34.8	5.4425828043399
24	17718	34.9	0.973
24	17783	35	0.973
24	17849	35.1	8.4575418047727
24	17920	35.2	0.973
24	18003	35.3	8.2661923237255
24	18074	35.4	0.973
24	18327	35.5	5.2287298286542
24	18399	35.6	0.973
24	18470	35.7	2.6788799765476
24	18544	35.8	1.3910481070304
24	19085	35.9	1.2927197110957
24	19155	36	7.2705084220237
24	19404	36.1	0.973
24	19474	36.2	2.9512113461028
24	19556	36.3	2.0695680885472
24	19626	36.4	0.973
24	19696	36.5	7.7425476896837
24	19766	36.6	0.973
24	19836	36.7	4.3549386904138
24	19921	36.8	1.2775226262859
24	19991	36.9	0.973
24	20248	37	1.8363515790207
24	20318	37.1	0.973
24	20388	37.2	3.4984737440376
24	20459	37.3	3.5419605926818
24	20529	37.4	0.973
24	20599	37.5	4.9042629806956
24	20670	37.6	0.973
24	20746	37.7	6.0777267525295
24	20834	37.8	4.493387556335
24	20910	37.9	0.973
24	20986	38	5.5047569201446
24	21062	38.1	0.973
24	21138	38.2	6.3931615472478
24	21215	38.3	0.973
24	21291	38.4	2.3137572438668
24	21367	38.5	8.1267194329429
24	21943	38.6	3.6011602974766
24	22210	38.7	0.973
24	22301	38.8	3.3115361173867
24	22661	38.9	7.6582096069716
24	22736	39	2.361010735247
24	22996	39.1	0.973
24	23071	39.2	4.100130292874
24	23146	39.3	0.973
24	23221	39.4	2.61815530713
24	23296	39.5	8.0799811806658
24	23371	39.6	0.973
24	23461	39.7	2.3627302110185
24	23537	39.8	0.973
24	23612	39.9	4.8415304573579
24	23884	40	0.973
24	23960	40.1	2.8938913567446
24	24041	40.2	7.5792528286047
24	24324	40.3	0.973
24	24405	40.4	0.973
24	24486	40.5	1.6706433916814
24	24567	40.6	2.1985435824488
24	24660	40.7	8.1587514216154
24	24741	40.8	1.5055690876085
24	24823	40.9	3.0703370192453
24	24904	41	0.973
24	24985	41.1	0.973
24	25066	41.2	2.5572719999212
24	25147	41.3	1.3467816810691
24	25228	41.4	6.5431371141105
24	25309	41.5	0.973
24	25390	41.6	8.9200020410383
24	25486	41.7	0.973
24	26081	41.8	4.0967462714831
24	26356	41.9	2.383831726184
24	26436	42	0.973
24	26914	42.1	4.946411876674
24	26994	42.2	0.973
24	27074	42.3	0.973
24	27169	42.4	3.1234327422042
24	27249	42.5	1.9829193241009
24	27330	42.6	3.6919236715357
24	27417	42.7	2.2789089470073
24	27503	42.8	3.1237542424781
24	27589	42.9	1.691429352906
24	27886	43	3.0238508015119
24	27972	43.1	1.1023671108486
24	28058	43.2	2.9845895718471
24	28356	43.3	0.973
24	28454	43.4	1.4383835878648
24	28540	43.5	4.167288081484
24	28839	43.6	5.4634856985485
24	28925	43.7	1.4852882144988
24	29011	43.8	0.973
24	29097	43.9	4.0298252170572
24	29183	44	0.973
24	29269	44.1	0.973
24	29355	44.2	6.3047416172209
24	29441	44.3	1.5940784274876
24	29539	44.4	0.973
24	29958	44.5	8.7312610455589
24	30431	44.6	0.973
24	30516	44.7	1.4396437993374
24	30601	44.8	1.0723239648482
24	30888	44.9	0.973
24	30973	45	6.8052309344211
24	31476	45.1	0.973
24	31567	45.2	3.6540439279643
24	31658	45.3	0.973
24	31750	45.4	6.2506986411658
24	31841	45.5	5.3005410047785
24	32154	45.6	0.973
24	32249	45.7	0.973
24	32451	45.8	0.973
24	32543	45.9	0.973
24	32853	46	7.5354344316784
24	32944	46.1	0.973
24	33050	46.2	4.1332395227323
24	33141	46.3	0.973
24	33232	46.4	7.0569509564918
24	33323	46.5	0.973
24	33632	46.6	3.1822101450366
24	33723	46.7	0.973
24	33814	46.8	3.9625213756517
24	33908	46.9	4.1107394290293
24	34547	47	3.2558323128443
24	34637	47.1	0.973
24	34739	47.2	6.4769849479474
24	34829	47.3	0.973
24	34919	47.4	7.8893217664984
24	35009	47.5	0.973
24	35100	47.6	5.3598211032895
24	35196	47.7	3.162993471638
24	35292	47.8	1.7251538330151
24	35607	47.9	0.973
24	35703	48	7.1543660613141
24	36250	48.1	4.5845172048684
24	36374	48.2	0.973
24	36470	48.3	0.973
24	37144	48.4	2.954917467523
24	37239	48.5	0.973
24	37334	48.6	3.3060880240941
24	37429	48.7	6.9888884585591
24	37753	48.8	0.973
24	37848	48.9	7.2447537656513
24	38397	49	0.973
24	38492	49.1	4.5683428095771
24	38600	49.2	0.973
24	38695	49.3	2.7806911439441
24	38790	49.4	0.973
24	38885	49.5	6.6644807426574
24	39205	49.6	1.5301475185143
24	39300	49.7	2.1200870902659
24	39395	49.8	1.6939171325953
24	39490	49.9	2.0252252208432
24	39585	50	3.2076116550201
24	39681	50.1	0.973
24	39794	50.2	1.2305144504292
24	39895	50.3	0.973
24	39996	50.4	3.1721917796483
24	40097	50.5	1.9486815936743
24	40198	50.6	0.973
24	40532	50.7	5.5493808361336
24	40633	50.8	1.7279355857661
24	40957	50.9	0.973
24	41058	51	6.075497301883
24	41491	51.1	0.973
24	41593	51.2	5.4219026556552
24	41695	51.3	3.5998495400887
24	41796	51.4	2.2280044303374
24	41897	51.5	1.1741693374084
24	41998	51.6	3.1598414110809
24	42099	51.7	0.973
24	42432	51.8	2.0456186184523
24	43101	51.9	4.3265464344013
24	43430	52	0.973
24	43530	52.1	3.6235030918664
24	43630	52.2	3.6824697504793
24	43730	52.3	4.3493766070313
24	43830	52.4	1.8676157037975
24	43930	52.5	0.973
24	44260	52.6	8.1847398887312
24	44366	52.7	0.973
24	44472	52.8	6.1544159232336
24	44818	52.9	0.973
24	44924	53	4.9544117821048
24	45031	53.1	0.973
24	45137	53.2	4.3504787516475
24	45243	53.3	7.0708969781332
24	45353	53.4	0.973
24	45836	53.5	2.3573919438948
24	45942	53.6	1.1365529539394
24	46048	53.7	5.7837271762405
24	46154	53.8	0.973
24	46354	53.9	2.7598476869398
24	46460	54	1.5731856670499
24	46901	54.1	5.9797711399539
24	47007	54.2	2.2082599033221
24	47113	54.3	0.973
24	47587	54.4	3.8772444587144
24	48138	54.5	2.9917654069604
24	48243	54.6	0.973
24	48348	54.7	4.4331177417742
24	48689	54.8	0.973
24	48794	54.9	1.6970227261541
24	49132	55	2.253294563385
24	49238	55.1	1.6183213785465
24	49349	55.2	4.2412974799558
24	49460	55.3	5.6602223085362
24	49571	55.4	0.973
24	49694	55.5	0.973
24	50298	55.6	2.7404500897327
24	50409	55.7	5.3344105538645
24	50520	55.8	0.973
24	50633	55.9	4.7132371106641
24	50744	56	0.973
24	50855	56.1	0.973
24	50966	56.2	3.5569357072149
24	51458	56.3	1.6712648118925
24	52012	56.4	0.973
24	52372	56.5	9.1224076007668
24	52497	56.6	0.973
24	52860	56.7	2.0412387216903
24	52970	56.8	5.2400457518616
24	53174	56.9	0.973
24	53284	57	5.4109801936711
24	53647	57.1	0.973
24	53757	57.2	0.973
24	53867	57.3	2.338895296554
24	53977	57.4	3.3362664535304
24	54087	57.5	3.1258226579063
24	54210	57.6	2.8190487215712
24	54326	57.7	5.9194077588922
24	54695	57.8	0.973
24	54811	57.9	0.973
24	55177	58	4.7379905016207
24	55293	58.1	1.9145895937403
24	55409	58.2	4.0274350316961
24	55792	58.3	1.9656197121458
24	55908	58.4	0.973
24	56024	58.5	1.607331380536
24	56402	58.6	3.0174352524052
24	56518	58.7	1.2629528470967
24	56888	58.8	7.4576726338798
24	57004	58.9	0.973
24	57123	59	0.973
24	57837	59.1	0.973
24	57967	59.2	5.1828231077058
24	58082	59.3	0.973
24	58197	59.4	4.464163697223
24	58572	59.5	3.2929833236158
24	58816	59.6	4.4916231764339
24	59190	59.7	1.5451008382709
24	59305	59.8	0.973
24	59420	59.9	6.6057392702503
24	59535	60	1.44073873692
24	59914	60.1	1.8262754325245
24	60047	60.2	0.973
24	60168	60.3	0.973
24	60289	60.4	1.8706491516313
24	60410	60.5	1.4803797579069
24	60532	60.6	3.1466544564835
24	60653	60.7	6.7434706726131
24	61031	60.8	0.973
24	61152	60.9	6.7129010313769
24	61524	61	0.973
24	61646	61.1	1.9585399723529
24	61779	61.2	0.973
24	62436	61.3	8.5404502747032
24	62557	61.4	0.973
24	62678	61.5	6.5151927481406
24	63163	61.6	0.973
24	63284	61.7	2.7894468627233
24	63405	61.8	1.4942290765083
24	63526	61.9	6.6195945938229
24	63650	62	2.7051603228634
24	64381	62.1	0.973
24	64502	62.2	0.973
24	64622	62.3	2.636420305196
24	64742	62.4	5.3526641331895
24	65119	62.5	0.973
24	65240	62.6	8.2910614152518
24	65630	62.7	0.973
24	65756	62.8	5.0439684930775
24	65882	62.9	3.301076769348
24	66009	63	0.973
24	66400	63.1	5.373274077239
24	66527	63.2	0.973
24	67280	63.3	1.2707234258474
24	67405	63.4	3.8626836374717
24	67530	63.5	1.4703509394398
24	67929	63.6	4.544005789274
24	68054	63.7	0.973
24	68296	63.8	4.7465511370714
24	68421	63.9	0.973
24	68917	64	0.973
24	69042	64.1	3.8330521004561
24	69167	64.2	0.973
24	69835	64.3	4.2754680312683
24	69960	64.4	3.7708663093981
24	70085	64.5	0.973
24	70584	64.6	7.5893236420602
24	70709	64.7	3.6493559860807
24	70849	64.8	0.973
24	70974	64.9	9.643620271006
24	71099	65	1.9842341432253
24	71225	65.1	0.973
24	71356	65.2	0.973
24	71487	65.3	2.1466832836325
24	71884	65.4	0.973
24	72424	65.5	0.973
24	72555	65.6	4.5087916713619
24	72960	65.7	5.8429330507408
24	73104	65.8	1.2276562229887
24	73235	65.9	0.973
24	73368	66	0.973
24	73789	66.1	6.2438482719023
24	73920	66.2	2.4133014538261
24	74051	66.3	3.6474017957566
24	74182	66.4	0.973
24	74313	66.5	4.0055803034188
24	74724	66.6	0.973
24	74855	66.7	2.6255765993998
24	75727	66.8	1.3231783293278
24	75857	66.9	7.0778297055979
24	76377	67	0.973
24	76519	67.1	0.973
24	76649	67.2	5.3988531869758
24	77336	67.3	2.1195323297044
24	77466	67.4	1.5138113420105
24	77596	67.5	5.1809155636753
24	78004	67.6	0.973
24	78140	67.7	0.973
24	78277	67.8	7.4628515278851
24	78413	67.9	0.973
24	78549	68	6.4827393527088
24	78697	68.1	0.973
24	78833	68.2	0.973
24	78970	68.3	5.8919196903201
24	79106	68.4	2.6451704063859
24	79514	68.5	1.3075137060452
24	79650	68.6	0.973
24	80343	68.7	6.1213182846125
24	80479	68.8	0.973
24	80882	68.9	2.7322862014468
24	81019	69	3.2583650045727
24	81432	69.1	0.973
24	82190	69.2	5.0652555584805
24	82325	69.3	0.973
24	82460	69.4	0.973
24	82595	69.5	5.8539698168855
24	83011	69.6	3.0141208869701
24	83146	69.7	2.4194059371273
24	83281	69.8	1.6744237348463
24	83416	69.9	3.7067108142288
24	83832	70	0.973
24	83968	70.1	1.9209344879804
24	84109	70.2	1.1863764744724
24	84820	70.3	7.5614936046904
24	84961	70.4	0.973
24	85118	70.5	6.5681789885419
24	85547	70.6	2.6940253158478
24	85689	70.7	0.973
24	85830	70.8	7.4133752041343
24	86899	70.9	0.973
24	87039	71	1.3806702098199
24	87180	71.1	5.4034991483693
24	87320	71.2	0.973
24	87460	71.3	0.973
24	87600	71.4	3.8447130139077
24	88148	71.5	6.919899631542
24	88288	71.6	0.973
24	88845	71.7	0.973
24	88985	71.8	2.2184699426594
24	89125	71.9	4.7182274904957
24	89266	72	0.973
24	89684	72.1	3.6484782768095
24	89824	72.2	1.9060144453548
24	89964	72.3	0.973
24	90107	72.4	7.5248911102705
24	92408	72.5	1.527736155027
24	92837	72.6	0.973
24	92983	72.7	4.5467777021458
24	93129	72.8	3.3776997291827
24	93275	72.9	0.973
24	93713	73	8.8869289442529
24	93859	73.1	0.973
24	94006	73.2	1.3245796972551
24	94739	73.3	3.4095222665598
24	95162	73.4	0.973
24	95309	73.5	6.3563454847176
24	96046	73.6	2.6607648396868
24	96193	73.7	0.973
24	96354	73.8	5.6434957005285
24	97420	73.9	0.973
24	97709	74	0.973
24	97855	74.1	5.5992440337739
24	98000	74.2	2.8626329879372
24	98145	74.3	0.973
24	98290	74.4	5.9102053936709
24	98840	74.5	0.973
24	98985	74.6	4.2553317120951
24	99552	74.7	2.9425906988824
24	99709	74.8	0.973
24	99855	74.9	3.7944437473688
24	100001	75	0.973
24	102725	75.1	1.9201784564777
24	102876	75.2	1.6504171664964
24	103028	75.3	2.7426169346723
24	103179	75.4	7.3795375203637
24	103330	75.5	0.973
24	103778	75.6	0.973
24	103929	75.7	0.973
24	104107	75.8	4.8744705601538
24	104258	75.9	1.7019071540869
24	104703	76	0.973
24	105131	76.1	7.5485325112945
24	105282	76.2	1.2481820539838
24	106506	76.3	0.973
24	106938	76.4	0.973
24	107088	76.5	1.8565074135571
24	107832	76.6	3.3137776020589
24	107982	76.7	4.3630613066707
24	108443	76.8	1.3616622923324
24	108888	76.9	2.5041285942111
24	109038	77	0.973
24	109190	77.1	1.8935921786299
24	109340	77.2	7.1053406187703
24	109490	77.3	0.973
24	109640	77.4	5.2945882563328
24	110070	77.5	0.973
24	110221	77.6	1.6961179797368
24	110673	77.7	3.6990431728183
24	110841	77.8	0.973
24	110997	77.9	5.4391384322106
24	111154	78	0.973
24	111591	78.1	4.8455270017022
24	111748	78.2	4.9175233980688
24	111905	78.3	2.0496334496823
24	112061	78.4	0.973
24	112217	78.5	7.5768609371482
24	112521	78.6	0.973
24	112677	78.7	0.973
24	112834	78.8	6.8467406323134
24	112990	78.9	1.803403457196
24	114075	79	0.973
24	114508	79.1	4.6171329495212
24	114663	79.2	3.1437515885882
24	115101	79.3	0.973
24	115542	79.4	8.5298442890751
24	115698	79.5	0.973
24	116445	79.6	0.973
24	116600	79.7	1.8049882325217
24	117051	79.8	5.0688509332263
24	117506	79.9	0.973
24	117661	80	0.973
23	26	0.3	4.7076447059336
23	35	0.4	4.4789687658793
23	44	0.5	4.1958617805312
23	54	0.6	4.2994300789104
23	63	0.7	3.8184071803533
23	72	0.8	4.1455384720677
23	81	0.9	3.4957618313187
23	93	1	4.1737797422545
23	214	1.1	3.6537824375064
23	223	1.2	3.4875752566503
23	232	1.3	4.0390457294416
23	241	1.4	3.906031975057
23	250	1.5	4.2561634868616
23	259	1.6	2.7705674956087
23	268	1.7	4.8582175606862
23	277	1.8	2.5908430898562
23	286	1.9	4.318359263707
23	308	2	4.0413961966988
23	317	2.1	3.8058372208616
23	326	2.2	3.0206874164287
23	335	2.3	2.9695781838382
23	344	2.4	3.6777626961702
23	353	2.5	3.8000570714939
23	362	2.6	3.5798885906115
23	372	2.7	4.0180380170932
23	383	2.8	2.9098030779278
23	394	2.9	4.1565095959231
23	405	3	3.3795703086071
23	417	3.1	4.0793961565942
23	428	3.2	2.6071121142013
23	439	3.3	4.6491230564425
23	450	3.4	2.8247818723321
23	461	3.5	3.815979899955
23	472	3.6	2.9977231187513
23	483	3.7	3.6988062987803
23	494	3.8	1.2119747960881
23	647	3.9	-0.10438279481605
23	658	4	0.34653215087019
23	669	4.1	0.11161640752107
23	680	4.2	-0.5531059805071
23	691	4.3	1.6317700350191
23	702	4.4	-0.91923204076011
23	713	4.5	0.7181701954687
23	724	4.6	-1.3764645834453
23	735	4.7	1.3009195530321
23	746	4.8	0.20333045860752
23	757	4.9	-0.47230707714334
23	768	5	0.43616535083856
23	779	5.1	-0.18161630432587
23	791	5.2	-0.41041898133699
23	804	5.3	-0.73832829948515
23	817	5.4	0.17189209000207
23	830	5.5	-0.21141933393665
23	843	5.6	-0.68044468294829
23	856	5.7	0.74792798724957
23	869	5.8	0.78121425874997
23	882	5.9	0.10680955136195
23	895	6	-0.024047194747254
23	909	6.1	-0.283885714598
23	922	6.2	-1.30086938967
23	935	6.3	1.8751812767005
23	948	6.4	-1.966057017562
23	961	6.5	1.8550199107267
23	974	6.6	-0.55351475952193
23	987	6.7	0.7893197966041
23	1000	6.8	-1.2894568394404
23	1013	6.9	1.341423431877
23	1029	7	-2.028470254736
23	1208	7.1	0.32144455122761
23	1221	7.2	0.49536784412339
23	1234	7.3	1.3168692303589
23	1247	7.4	-1.9552376685897
23	1260	7.5	-0.24641905562021
23	1273	7.6	1.314004692249
23	1287	7.7	1.0299285623478
23	1318	7.8	-0.20252193906344
23	1333	7.9	0.00367212574929
23	1364	8	-0.73883818520699
23	1379	8.1	-0.69552282744553
23	1394	8.2	1.0677065706113
23	1410	8.3	0.42862246278673
23	1425	8.4	-2.0883892296115
23	1443	8.5	0.65471455396619
23	1656	8.6	-0.12229205400217
23	1707	8.7	1.3328395859571
23	1734	8.8	0.40770953230094
23	1749	8.9	0.038530171150342
23	1776	9	-0.66328121640254
23	1791	9.1	-1.7304514406715
23	1806	9.2	0.96507802256383
23	1821	9.3	0.0097635859856382
23	1836	9.4	-0.95124276936986
23	1851	9.5	0.26585085783154
23	1866	9.6	1.3724292861298
23	1881	9.7	-0.24767196795437
23	1908	9.8	-0.46191784262192
23	1923	9.9	-0.27814678905997
23	1950	10	0.47801802109461
23	1965	10.1	-0.35666453361046
23	1986	10.2	0.093992449110374
23	2007	10.3	-0.27420329162851
23	2028	10.4	0.24514776654541
23	2049	10.5	1.2878801673651
23	2071	10.6	-1.2200235074852
23	2092	10.7	-0.94522250758018
23	2114	10.8	0.18103791924659
23	2282	10.9	-0.21873909281567
23	2461	11	0.70038412464783
23	2481	11.1	0.87894231255632
23	2501	11.2	0.50715838966426
23	2521	11.3	-0.89716786402278
23	2541	11.4	-0.8492319425568
23	2561	11.5	1.7700891103595
23	2581	11.6	-1.3936404732522
23	2601	11.7	1.6171016491717
23	2621	11.8	-2.013038075529
23	2641	11.9	-0.22080044436734
23	2661	12	1.0577172943158
23	2681	12.1	0.8538658375619
23	2701	12.2	-0.11108603677712
23	2721	12.3	-0.96082046220545
23	2741	12.4	1.1088967777323
23	2761	12.5	-1.3360098027624
23	2781	12.6	0.21283031266648
23	2807	12.7	-0.34219573601149
23	2833	12.8	1.3461343623931
23	2859	12.9	-0.8929575746879
23	2885	13	-0.27742790582124
23	2912	13.1	0.48176747048274
23	2938	13.2	-0.32455053296871
23	2964	13.3	-0.31544155790471
23	2990	13.4	0.34197370347101
23	3031	13.5	0.37757609388791
23	3057	13.6	0.56698825093918
23	3083	13.7	-1.0414131917059
23	3359	13.8	1.6143231233582
23	3384	13.9	-2.2132057847921
23	3409	14	1.0048226168146
23	3434	14.1	-0.99222246732097
23	3459	14.2	1.0213650716469
23	3484	14.3	-0.64672651176807
23	3509	14.4	1.359959904803
23	3546	14.5	-1.220972816227
23	3571	14.6	-0.074067291570827
23	3596	14.7	1.2490212504053
23	3621	14.8	-1.2930372479605
23	3646	14.9	1.5737112553325
23	3671	15	-1.5977439994458
23	3696	15.1	1.1119467823301
23	3727	15.2	-0.67183547944296
23	3758	15.3	0.6847978325095
23	3789	15.4	-0.7467925659148
23	3832	15.5	-0.95280756766442
23	3863	15.6	0.61502251308411
23	3895	15.7	1.0563521709992
23	3926	15.8	-1.7030959599651
23	3972	15.9	1.2397209036862
23	4003	16	0.1696954126237
23	4034	16.1	-0.25206710211933
23	4065	16.2	-0.14472943556029
23	4277	16.3	-0.51209144934546
23	4440	16.4	-0.0029311148682609
23	4471	16.5	0.12406353547703
23	4501	16.6	-0.39316407579463
23	4531	16.7	1.5937319642399
23	4561	16.8	-0.33416639955249
23	4603	16.9	0.80914863909129
23	4633	17	-1.1730457475642
23	4663	17.1	0.36166416131891
23	4693	17.2	-0.70028227579314
23	4723	17.3	1.0015432402724
23	4808	17.4	-1.5815677406499
23	4838	17.5	2.1185934112873
23	4868	17.6	-2.095242474461
23	4904	17.7	0.59284761489835
23	4940	17.8	0.27348185423762
23	4988	17.9	0.35875454545021
23	5024	18	-0.37782568077091
23	5173	18.1	-0.4509042063728
23	5209	18.2	0.061363950371742
23	5245	18.3	1.1490044556558
23	5281	18.4	-0.54529637796804
23	5621	18.5	-1.2343391246395
23	5656	18.6	0.34087662526872
23	5691	18.7	1.8820271885488
23	5726	18.8	0.073520807200111
23	5762	18.9	0.042440303950571
23	5797	19	-0.20821605343372
23	5832	19.1	-0.56771490140818
23	5867	19.2	0.77773704892024
23	5902	19.3	-0.5138871120289
23	5937	19.4	0.26419154775795
23	5972	19.5	-0.73392450343817
23	6007	19.6	-1.4508892013691
23	6057	19.7	1.8699778913287
23	6092	19.8	-0.68972473731264
23	6127	19.9	-0.47316548589151
23	6162	20	-0.54598052171059
23	6198	20.1	0.27500108699314
23	6239	20.2	1.2960255390499
23	6280	20.3	-1.4874160417821
23	6321	20.4	0.024506170884706
23	6362	20.5	0.50401168875396
23	6403	20.6	-0.39768395537976
23	6457	20.7	0.72667506232392
23	6498	20.8	-1.0486161877634
23	6661	20.9	0.74014638026711
23	6702	21	0.72274740086868
23	6743	21.1	0.58582493744325
23	6784	21.2	-0.3079367155442
23	6825	21.3	-1.0923901794013
23	6866	21.4	0.93775343440939
23	6907	21.5	0.008929535979405
23	6948	21.6	-0.87644707236905
23	7332	21.7	0.10371774435043
23	7372	21.8	1.5219803113723
23	7412	21.9	-1.3195745955454
23	7452	22	0.538635289995
23	7492	22.1	0.60798647347838
23	7532	22.2	0.24178294639569
23	7572	22.3	-2.2802186233457
23	7612	22.4	1.4520644763252
23	7652	22.5	-0.12284503725823
23	7693	22.6	-0.60047946230043
23	7740	22.7	0.19661829574034
23	7786	22.8	-0.34012470394373
23	7832	22.9	0.91052329167724
23	7878	23	-0.70362201950047
23	7924	23.1	-0.068978124763817
23	7971	23.2	0.26978968759067
23	8375	23.3	-0.49398932373151
23	8420	23.4	0.16532374313101
23	8465	23.5	1.1217850295361
23	8510	23.6	-1.7257212189725
23	8555	23.7	0.74468134611379
23	8600	23.8	0.47503378707916
23	8645	23.9	-0.673185751657
23	8690	24	0.99952923308592
23	8867	24.1	0.029001744114794
23	8912	24.2	-0.8069387980504
23	8957	24.3	-0.77099194342736
23	9002	24.4	-0.017396548064426
23	9051	24.5	2.0054917491507
23	9162	24.6	-0.95797747722827
23	9207	24.7	-0.0098814675584435
23	9252	24.8	-0.93262196693104
23	9297	24.9	0.48786989878863
23	9342	25	0.86346825293731
23	9389	25.1	-0.61339323641732
23	9440	25.2	1.3298561744159
23	9491	25.3	-0.93652200768702
23	9542	25.4	-0.91607719892636
23	9593	25.5	1.3731951185036
23	9786	25.6	-0.3702331171371
23	9837	25.7	0.4247338877758
23	9903	25.8	-0.47180865891278
23	9955	25.9	-0.75616293528583
23	10006	26	1.0918988694903
23	10057	26.1	-0.67588644276839
23	10108	26.2	-0.21152202505618
23	10544	26.3	-0.89350338326767
23	10594	26.4	0.074432148248889
23	10644	26.5	1.5459590038517
23	10694	26.6	-1.1411249166122
23	10744	26.7	0.247485821601
23	10806	26.8	0.48199380747974
23	10856	26.9	0.13996815949213
23	10906	27	0.44964785513002
23	10956	27.1	-0.87346962012816
23	11006	27.2	-0.19351070106495
23	11056	27.3	0.74107693100814
23	11106	27.4	-0.69168838497717
23	11156	27.5	1.3541365141282
23	11207	27.6	-1.4140802260954
23	11263	27.7	-0.63583632465452
23	11331	27.8	2.0418301830068
23	11387	27.9	0.16578230657615
23	11595	28	-1.9199754204601
23	11651	28.1	0.75425191607792
23	11707	28.2	-0.48704351589549
23	11764	28.3	-0.53212387312669
23	11820	28.4	1.6659716365393
23	11876	28.5	-0.17338245175779
23	12344	28.6	-1.0136863961816
23	12399	28.7	0.96803431340959
23	12455	28.8	-0.35469997150358
23	12510	28.9	-0.35331075778231
23	12565	29	1.4208789251279
23	12620	29.1	-0.14128821901977
23	12675	29.2	-1.1265190842096
23	12730	29.3	0.1229500543559
23	12785	29.4	1.1969221045729
23	12840	29.5	-0.15293925942387
23	12910	29.6	-1.7853679810651
23	12965	29.7	1.2576003995491
23	13020	29.8	-1.6574467922328
23	13075	29.9	1.1291070707375
23	13130	30	0.15801503323019
23	13186	30.1	-1.0505087039201
23	13247	30.2	2.009016937227
23	13308	30.3	-1.2090180523228
23	13369	30.4	0.36035290919244
23	13430	30.5	-0.24972396960948
23	13503	30.6	-1.0397931118496
23	13649	30.7	-0.057090626796708
23	13872	30.8	2.2672097862232
23	13933	30.9	-1.4820761518786
23	14160	31	1.2773140834179
23	14221	31.1	-0.55324058514088
23	14282	31.2	-0.25684412161354
23	14343	31.3	-0.056485710083507
23	14404	31.4	0.057314541190863
23	14465	31.5	0.084405257366598
23	14538	31.6	-0.58147675532382
23	14599	31.7	-0.1007013686467
23	14660	31.8	0.69863917655312
23	14721	31.9	-0.72200800583232
23	15211	32	1.5021324087866
23	15271	32.1	-0.48986789595801
23	15331	32.2	-1.6830447921529
23	15391	32.3	2.0137087447802
23	15451	32.4	-0.35872173379175
23	15511	32.5	-1.7017905478133
23	15573	32.6	2.058924632147
23	15639	32.7	-1.5686052647652
23	15705	32.8	1.2877792288782
23	15771	32.9	0.019851753022522
23	15837	33	-1.2058081640862
23	15903	33.1	0.7887518935604
23	15969	33.2	-1.370805723127
23	16035	33.3	0.14614700048696
23	16102	33.4	-0.0064528448274359
23	16168	33.5	0.91881394095253
23	16234	33.6	-0.8195361320395
23	16746	33.7	0.21797540830448
23	16811	33.8	1.5781384456204
23	16876	33.9	0.12800995842554
23	17118	34	-0.16800307144877
23	17183	34.1	-0.53967860818375
23	17248	34.2	-1.0094356315676
23	17328	34.3	0.62542082858272
23	17393	34.4	-0.34613229159731
23	17458	34.5	-0.71384821902029
23	17523	34.6	0.5228954681661
23	17588	34.7	0.55320448649582
23	17653	34.8	1.0227513953578
23	17718	34.9	-0.60754611040466
23	17783	35	-1.2108757987153
23	17849	35.1	1.9232609448954
23	17920	35.2	-1.8102343694773
23	18003	35.3	1.8651345354738
23	18074	35.4	-2.0935837557772
23	18327	35.5	0.9684173821006
23	18399	35.6	-0.42042683926411
23	18470	35.7	0.20096312859096
23	18544	35.8	-0.18745323992334
23	19085	35.9	-0.21685858082492
23	19155	36	1.5700668853242
23	19404	36.1	-0.70686378807295
23	19474	36.2	0.27941669046413
23	19556	36.3	0.014669881784357
23	19626	36.4	-1.6946438275045
23	19696	36.5	1.7173681297572
23	19766	36.6	-0.95511469815392
23	19836	36.7	0.70261207176372
23	19921	36.8	-0.22246161068324
23	19991	36.9	-0.69556291971821
23	20248	37	-0.052166936802678
23	20318	37.1	-0.39217748504598
23	20388	37.2	0.45080724579748
23	20459	37.3	0.46101801155601
23	20529	37.4	-0.61459139047656
23	20599	37.5	0.86962143832352
23	20670	37.6	-1.2516177335056
23	20746	37.7	1.2233240407659
23	20834	37.8	0.73990613047499
23	20910	37.9	-1.9532185868593
23	20986	38	1.0524670412997
23	21062	38.1	-0.39819020719733
23	21138	38.2	1.3089217571542
23	21215	38.3	-2.0109102036804
23	21291	38.4	0.093971005408093
23	21367	38.5	1.8296471971553
23	21943	38.6	0.47008185705636
23	22210	38.7	-2.3453401552979
23	22301	38.8	0.39498929283582
23	22661	38.9	1.686078653438
23	22736	39	0.10022105299868
23	22996	39.1	-1.9376798847225
23	23071	39.2	0.63026512099896
23	23146	39.3	-0.61557761626318
23	23221	39.4	0.18469101225492
23	23296	39.5	1.8095576314954
23	23371	39.6	-0.98082116164733
23	23461	39.7	0.10377875354607
23	23537	39.8	-0.85566892288625
23	23612	39.9	0.84954874590039
23	23884	40	-0.9292938146973
23	23960	40.1	0.26689042686485
23	24041	40.2	1.6581843845779
23	24324	40.3	-1.4131176867522
23	24405	40.4	-0.52464204491116
23	24486	40.5	-0.10202611098066
23	24567	40.6	0.057803996023722
23	24660	40.7	1.8336845911108
23	24741	40.8	-0.15540268097539
23	24823	40.9	0.3113607125124
23	24904	41	-1.2471509358147
23	24985	41.1	-0.81685562443454
23	25066	41.2	0.1661146664992
23	25147	41.3	-0.20012344466522
23	25228	41.4	1.3580810849089
23	25309	41.5	-1.6294653224759
23	25390	41.6	2.0639848575229
23	25486	41.7	-0.70916406635661
23	26081	41.8	0.62087937141769
23	26356	41.9	0.10740770841949
23	26436	42	-0.64247606904246
23	26914	42.1	0.87222765432671
23	26994	42.2	-0.35424255824182
23	27074	42.3	-1.8942654301645
23	27169	42.4	0.33793673675973
23	27249	42.5	-0.0075783114880323
23	27330	42.6	0.50680448417552
23	27417	42.7	0.079973324900493
23	27503	42.8	0.33303633565083
23	27589	42.9	-0.097811637097038
23	27886	43	0.30190191871952
23	27972	43.1	-0.27525063604116
23	28058	43.2	0.29002731607761
23	28356	43.3	-0.98419310001191
23	28454	43.4	-0.17253160767723
23	28540	43.5	0.64933474117424
23	28839	43.6	1.0294183326187
23	28925	43.7	-0.1611668698024
23	29011	43.8	-0.77979780267924
23	29097	43.9	0.60274406743702
23	29183	44	-0.88220637990162
23	29269	44.1	-0.43131017533597
23	29355	44.2	1.28575634968
23	29441	44.3	-0.1278601156082
23	29539	44.4	-1.1253362119896
23	29958	44.5	2.0009651780128
23	30431	44.6	-0.42044200527016
23	30516	44.7	-0.17475385859143
23	30601	44.8	-0.28460349596571
23	30888	44.9	-0.73372029524762
23	30973	45	1.4284490607679
23	31476	45.1	-1.0749587521423
23	31567	45.2	0.49030476540793
23	31658	45.3	-1.6780409461353
23	31750	45.4	1.2747464433778
23	31841	45.5	0.9787461347878
23	32154	45.6	-0.32792580488604
23	32249	45.7	-1.0506665869616
23	32451	45.8	-0.39345337252598
23	32543	45.9	-0.37916210363619
23	32853	46	1.6542947909329
23	32944	46.1	-0.62741736706812
23	33050	46.2	0.63351116783451
23	33141	46.3	-1.3185382180382
23	33232	46.4	1.5080117399339
23	33323	46.5	-1.304129815544
23	33632	46.6	0.35244394442998
23	33723	46.7	-0.35302345990203
23	33814	46.8	0.58614032750484
23	33908	46.9	0.6260276096873
23	34547	47	0.36763176263776
23	34637	47.1	-1.9540258811321
23	34739	47.2	1.3385764369741
23	34829	47.3	-1.4817474409938
23	34919	47.4	1.7583920521429
23	35009	47.5	-1.3402227545157
23	35100	47.6	1.0036673361901
23	35196	47.7	0.3417064336827
23	35292	47.8	-0.08903868671041
23	35607	47.9	-1.7935618874617
23	35703	48	1.5428427414736
23	36250	48.1	0.76414062990807
23	36374	48.2	-0.45972068968695
23	36470	48.3	-1.6558746987721
23	37144	48.4	0.28649231069721
23	37239	48.5	-0.34559987892862
23	37334	48.6	0.39254921313841
23	37429	48.7	1.4866517786868
23	37753	48.8	-1.7995824536774
23	37848	48.9	1.5666110470193
23	38397	49	-0.80164004757535
23	38492	49.1	0.76413794013206
23	38600	49.2	-0.8399793622084
23	38695	49.3	0.23064620734658
23	38790	49.4	-0.50273105734959
23	38885	49.5	1.3894188124686
23	39205	49.6	-0.14767683809623
23	39300	49.7	0.029064338305034
23	39395	49.8	-0.098425230244175
23	39490	49.9	0.00093198847025633
23	39585	50	0.35355112340767
23	39681	50.1	-0.35996695805807
23	39794	50.2	-0.23708022315986
23	39895	50.3	-0.83833467098884
23	39996	50.4	0.34897609963082
23	40097	50.5	-0.019851421820931
23	40198	50.6	-0.38542098132893
23	40532	50.7	1.0586764384061
23	40633	50.8	-0.087823614594527
23	40957	50.9	-0.66180925408844
23	41058	51	1.2111035705311
23	41491	51.1	-1.6365128505277
23	41593	51.2	1.0220192867564
23	41695	51.3	0.47161995258648
23	41796	51.4	0.060702072223648
23	41897	51.5	-0.25435449439101
23	41998	51.6	0.33909116697032
23	42099	51.7	-1.3658382487483
23	42432	51.8	0.01005801721476
23	43101	51.9	0.69333444058429
23	43430	52	-1.4967539627105
23	43530	52.1	0.48868528509047
23	43630	52.2	0.50315756641794
23	43730	52.3	0.69862604606897
23	43830	52.4	-0.045983290765435
23	43930	52.5	-1.2917066575028
23	44260	52.6	1.841313309269
23	44366	52.7	-2.1042247500736
23	44472	52.8	1.2445718317758
23	44818	52.9	-0.36258263397031
23	44924	53	0.87868295260705
23	45031	53.1	-1.7048202262959
23	45137	53.2	0.70577948936261
23	45243	53.3	1.5060110017657
23	45353	53.4	-1.9388086604886
23	45836	53.5	0.10528172191698
23	45942	53.6	-0.26389527251013
23	46048	53.7	1.1323944688775
23	46154	53.8	-0.89703729317989
23	46354	53.9	0.22615276742727
23	46460	54	-0.13218284351751
23	46901	54.1	1.186881858157
23	47007	54.2	0.055626969551668
23	47113	54.3	-1.0946469212649
23	47587	54.4	0.55973345937673
23	48138	54.5	0.29175372910686
23	48243	54.6	-1.2103431276046
23	48348	54.7	0.72859806823544
23	48689	54.8	-0.65258520946372
23	48794	54.9	-0.094185248017311
23	49132	55	0.074098663171753
23	49238	55.1	-0.11793623678386
23	49349	55.2	0.67173301067669
23	49460	55.3	1.0877833160339
23	49571	55.4	-0.95664283260703
23	49694	55.5	-0.33389113028534
23	50298	55.6	0.21898018720094
23	50409	55.7	0.99110398325138
23	50520	55.8	-0.4041621950455
23	50633	55.9	0.8016025921097
23	50744	56	-0.61021680245176
23	50855	56.1	-0.60189676005393
23	50966	56.2	0.46113739954308
23	51458	56.3	-0.10468003805727
23	52012	56.4	-1.2647518859012
23	52372	56.5	2.1180737874238
23	52497	56.6	-0.95526948163752
23	52860	56.7	0.0067595992004499
23	52970	56.8	0.95881058950908
23	53174	56.9	-1.8060123873875
23	53284	57	1.0180019086692
23	53647	57.1	-0.37513117596973
23	53757	57.2	-1.0733241779963
23	53867	57.3	0.10065946844406
23	53977	57.4	0.40067915630061
23	54087	57.5	0.33521911886055
23	54210	57.6	0.24154192476999
23	54326	57.7	1.1615965660894
23	54695	57.8	-1.1341506824829
23	54811	57.9	-1.29326595983
23	55177	58	0.8232403540751
23	55293	58.1	-0.029422541265376
23	55409	58.2	0.60435385385063
23	55792	58.3	-0.015730822924525
23	55908	58.4	-0.56198435020633
23	56024	58.5	-0.12203813996166
23	56402	58.6	0.30265245353803
23	56518	58.7	-0.22625080368016
23	56888	58.8	1.6212934564101
23	57004	58.9	-0.60044206446037
23	57123	59	-0.30038653931115
23	57837	59.1	-1.1317064898321
23	57967	59.2	0.95267350552604
23	58082	59.3	-0.95488468010444
23	58197	59.4	0.73821207392029
23	58572	59.5	0.38296280894428
23	58816	59.6	0.73707581381314
23	59190	59.7	-0.14361444802489
23	59305	59.8	-1.2394766777288
23	59420	59.9	1.3693505740957
23	59535	60	-0.17477011424489
23	59914	60.1	-0.059187600854784
23	60047	60.2	-0.51174953987356
23	60168	60.3	-0.69962180685252
23	60289	60.4	-0.042490060441196
23	60410	60.5	-0.16015342320316
23	60532	60.6	0.34218754852191
23	60653	60.7	1.4091707154876
23	61031	60.8	-1.413359742146
23	61152	60.9	1.4002091786824
23	61524	61	-1.2981824990129
23	61646	61.1	-0.016692239441909
23	61779	61.2	-0.96383078780491
23	62436	61.3	1.9519106997177
23	62557	61.4	-1.5652649186086
23	62678	61.5	1.3480598822935
23	63163	61.6	-1.4585668366635
23	63284	61.7	0.23612085380591
23	63405	61.8	-0.15561320469715
23	63526	61.9	1.3793634244939
23	63650	62	0.20412402052898
23	64381	62.1	-0.39230171008967
23	64502	62.2	-0.58382297342177
23	64622	62.3	0.18698809319176
23	64742	62.4	0.99509047577158
23	65119	62.5	-1.9102714821929
23	65240	62.6	1.8745849840343
23	65630	62.7	-1.7801002506167
23	65756	62.8	0.91143641562667
23	65882	62.9	0.38445751182735
23	66009	63	-0.4430512530962
23	66400	63.1	1.0008662840119
23	66527	63.2	-1.3436982431449
23	67280	63.3	-0.22370503342245
23	67405	63.4	0.55627086316235
23	67530	63.5	-0.16405259026214
23	67929	63.6	0.75644458876923
23	68054	63.7	-0.79967790807132
23	68296	63.8	0.81703940755688
23	68421	63.9	-1.0744679445634
23	68917	64	-0.33386194612831
23	69042	64.1	0.54909661761485
23	69167	64.2	-0.76251432590652
23	69835	64.3	0.68323893588968
23	69960	64.4	0.52725029003341
23	70085	64.5	-1.407620398677
23	70584	64.6	1.6717982984846
23	70709	64.7	0.48577598703559
23	70849	64.8	-2.0683264109539
23	70974	64.9	2.2750213916879
23	71099	65	-0.01293845649343
23	71225	65.1	-0.52407579380088
23	71356	65.2	-0.43914605746977
23	71487	65.3	0.038649216294289
23	71884	65.4	-0.87248724303208
23	72424	65.5	-0.31458553334232
23	72555	65.6	0.75273536960594
23	72960	65.7	1.1422718060203
23	73104	65.8	-0.23836388019845
23	73235	65.9	-0.61698711710051
23	73368	66	-0.70834150654264
23	73789	66.1	1.2658532906789
23	73920	66.2	0.11678459355608
23	74051	66.3	0.48336769861635
23	74182	66.4	-0.7878572831396
23	74313	66.5	0.59173662797548
23	74724	66.6	-1.3360922847642
23	74855	66.7	0.18415107624605
23	75727	66.8	-0.20818716206122
23	75857	66.9	1.5082296001492
23	76377	67	-1.1411572556244
23	76519	67.1	-1.2393793842057
23	76649	67.2	1.0208788962336
23	77336	67.3	0.031676985672675
23	77466	67.4	-0.15068424749188
23	77596	67.5	0.94692427781411
23	78004	67.6	-0.7847217383096
23	78140	67.7	-0.75479341088794
23	78277	67.8	1.6297406499507
23	78413	67.9	-1.0075935581699
23	78549	68	1.3319756457349
23	78697	68.1	-1.4654271985637
23	78833	68.2	-0.72474472806789
23	78970	68.3	1.1670677008806
23	79106	68.4	0.18852193024941
23	79514	68.5	-0.2134274051059
23	79650	68.6	-0.36577894585207
23	80343	68.7	1.2261676497292
23	80479	68.8	-0.54483057523612
23	80882	68.9	0.21327317226678
23	81019	69	0.36901032028254
23	81432	69.1	-0.62369104532991
23	82190	69.2	0.90699099411722
23	82325	69.3	-1.8915072962409
23	82460	69.4	-0.42689675174188
23	82595	69.5	1.1557133484166
23	83011	69.6	0.29893349390477
23	83146	69.7	0.11975465167779
23	83281	69.8	-0.10368050832767
23	83416	69.9	0.50357917498332
23	83832	70	-1.3142386695836
23	83968	70.1	-0.027241187635809
23	84109	70.2	-0.24899278127123
23	84820	70.3	1.6566020768369
23	84961	70.4	-1.312708175974
23	85118	70.5	1.3587817869848
23	85547	70.6	0.19901595951524
23	85689	70.7	-2.2116996510886
23	85830	70.8	1.6174131882144
23	86899	70.9	-0.7011129159946
23	87039	71	-0.19083631399553
23	87180	71.1	1.0132241621614
23	87320	71.2	-1.5786653751275
23	87460	71.3	-0.29575847263914
23	87600	71.4	0.55530027544592
23	88148	71.5	1.4657249092124
23	88288	71.6	-1.0318498325069
23	88845	71.7	-0.4509548319038
23	88985	71.8	0.063029866432771
23	89125	71.9	0.81193703575991
23	89266	72	-0.94791991286911
23	89684	72.1	0.49324196821544
23	89824	72.2	-0.032400098862126
23	89964	72.3	-0.88160767103545
23	90107	72.4	1.6517189488513
23	92408	72.5	-0.14778588607442
23	92837	72.6	-1.0939656355185
23	92983	72.7	0.76206101453863
23	93129	72.8	0.40754444897175
23	93275	72.9	-1.4155438216403
23	93713	73	2.0504194649402
23	93859	73.1	-0.59651002578903
23	94006	73.2	-0.20867562503554
23	94739	73.3	0.4156160360435
23	95162	73.4	-1.7599622957641
23	95309	73.5	1.3045484171016
23	96046	73.6	0.19235270447098
23	96193	73.7	-0.39164001704194
23	96354	73.8	1.0805909929331
23	97420	73.9	-0.28659909090493
23	97709	74	-1.757080857642
23	97855	74.1	1.0777888243319
23	98000	74.2	0.25309053773526
23	98145	74.3	-0.63805221405346
23	98290	74.4	1.162436788436
23	98840	74.5	-1.2206977099413
23	98985	74.6	0.67159030470066
23	99552	74.7	0.27584134484641
23	99709	74.8	-0.83838366437703
23	99855	74.9	0.53333684161771
23	100001	75	-1.0707430483308
23	102725	75.1	-0.026721203466877
23	102876	75.2	-0.10818347858731
23	103028	75.3	0.22184932546224
23	103179	75.4	1.6015149041777
23	103330	75.5	-0.43785373505671
23	103778	75.6	-0.9600895550102
23	103929	75.7	-0.57479109091219
23	104107	75.8	0.86242511693854
23	104258	75.9	-0.094034659559838
23	104703	76	-0.52446981775574
23	105131	76.1	1.6531980113359
23	105282	76.2	-0.23216656583827
23	106506	76.3	-0.6246518495027
23	106938	76.4	-0.90770756243728
23	107088	76.5	-0.045545147149824
23	107832	76.6	0.39404929266311
23	107982	76.7	0.70556210586801
23	108443	76.8	-0.1970604195958
23	108888	76.9	0.14652904355898
23	109038	77	-0.57260712084826
23	109190	77.1	-0.035525549901649
23	109340	77.2	1.5184620651416
23	109490	77.3	-1.626143270405
23	109640	77.4	0.9835924685467
23	110070	77.5	-0.62010497204028
23	110221	77.6	-0.095593873993494
23	110673	77.7	0.50575035857037
23	110841	77.8	-1.0580341162859
23	110997	77.9	1.0295113787288
23	111154	78	-1.0263398574898
23	111591	78.1	0.85250445059501
23	111748	78.2	0.866108914488
23	111905	78.3	0.007488775299862
23	112061	78.4	-1.349064183305
23	112217	78.5	1.6575292841299
23	112521	78.6	-0.72783228650223
23	112677	78.7	-1.5041280031437
23	112834	78.8	1.4499722630717
23	112990	78.9	-0.064843891886994
23	114075	79	-0.67952603392769
23	114508	79.1	0.77990537509322
23	114663	79.2	0.33559014147613
23	115101	79.3	-1.7054397374159
23	115542	79.4	1.9451041915454
23	115698	79.5	-0.55858306528535
23	116445	79.6	-0.755241138977
23	116600	79.7	-0.062562269158661
23	117051	79.8	0.91446880251169
23	117506	79.9	-0.6591006135568
23	117661	80	-0.38588311697822
22	15	0.2	0.48627966244239
22	26	0.3	0.95704413303575
22	35	0.4	1.4049410096237
22	44	0.5	1.8245271876768
22	54	0.6	2.2544701955678
22	63	0.7	2.6363109136032
22	72	0.8	3.0508647608099
22	81	0.9	3.4004409439418
22	93	1	3.8178189181673
22	214	1.1	4.1831971619179
22	223	1.2	4.5319546875829
22	232	1.3	4.9358592605271
22	241	1.4	5.3264624580328
22	250	1.5	5.7520788067189
22	259	1.6	6.0291355562798
22	268	1.7	6.5149573123484
22	277	1.8	6.774041621334
22	286	1.9	7.2058775477047
22	308	2	7.6100171673746
22	317	2.1	7.9906008894608
22	326	2.2	8.2926696311036
22	335	2.3	8.5896274494875
22	344	2.4	8.9574037191045
22	353	2.5	9.3374094262539
22	362	2.6	9.695398285315
22	372	2.7	10.097202087024
22	383	2.8	10.388182394817
22	394	2.9	10.803833354409
22	405	3	11.14179038527
22	417	3.1	11.54973000093
22	428	3.2	11.81044121235
22	439	3.3	12.275353517994
22	450	3.4	12.557831705227
22	461	3.5	12.939429695223
22	472	3.6	13.239202007098
22	483	3.7	13.609082636976
22	494	3.8	13.730280116585
22	647	3.9	13.719841837103
22	658	4	13.75449505219
22	669	4.1	13.765656692942
22	680	4.2	13.710346094891
22	691	4.3	13.873523098393
22	702	4.4	13.781599894317
22	713	4.5	13.853416913864
22	724	4.6	13.71577045552
22	735	4.7	13.845862410823
22	746	4.8	13.866195456684
22	757	4.9	13.818964748969
22	768	5	13.862581284053
22	779	5.1	13.844419653621
22	791	5.2	13.803377755487
22	804	5.3	13.729544925538
22	817	5.4	13.746734134539
22	830	5.5	13.725592201145
22	843	5.6	13.65754773285
22	856	5.7	13.732340531575
22	869	5.8	13.81046195745
22	882	5.9	13.821142912586
22	895	6	13.818738193111
22	909	6.1	13.790349621652
22	922	6.2	13.660262682685
22	935	6.3	13.847780810355
22	948	6.4	13.651175108599
22	961	6.5	13.836677099671
22	974	6.6	13.781325623719
22	987	6.7	13.860257603379
22	1000	6.8	13.731311919435
22	1013	6.9	13.865454262623
22	1029	7	13.662607237149
22	1208	7.1	13.694751692272
22	1221	7.2	13.744288476685
22	1234	7.3	13.87597539972
22	1247	7.4	13.680451632862
22	1260	7.5	13.655809727299
22	1273	7.6	13.787210196524
22	1287	7.7	13.890203052759
22	1318	7.8	13.869950858853
22	1333	7.9	13.870318071428
22	1364	8	13.796434252907
22	1379	8.1	13.726881970163
22	1394	8.2	13.833652627224
22	1410	8.3	13.876514873502
22	1425	8.4	13.667675950541
22	1443	8.5	13.733147405938
22	1656	8.6	13.720918200538
22	1707	8.7	13.854202159133
22	1734	8.8	13.894973112363
22	1749	8.9	13.898826129478
22	1776	9	13.832498007838
22	1791	9.1	13.659452863771
22	1806	9.2	13.755960666027
22	1821	9.3	13.756937024626
22	1836	9.4	13.661812747689
22	1851	9.5	13.688397833472
22	1866	9.6	13.825640762085
22	1881	9.7	13.80087356529
22	1908	9.8	13.754681781027
22	1923	9.9	13.726867102121
22	1950	10	13.774668904231
22	1965	10.1	13.73900245087
22	1986	10.2	13.748401695781
22	2007	10.3	13.720981366618
22	2028	10.4	13.745496143273
22	2049	10.5	13.874284160009
22	2071	10.6	13.752281809261
22	2092	10.7	13.657759558503
22	2114	10.8	13.675863350427
22	2282	10.9	13.653989441146
22	2461	11	13.72402785361
22	2481	11.1	13.811922084866
22	2501	11.2	13.862637923833
22	2521	11.3	13.77292113743
22	2541	11.4	13.687997943175
22	2561	11.5	13.865006854211
22	2581	11.6	13.725642806885
22	2601	11.7	13.887352971802
22	2621	11.8	13.68604916425
22	2641	11.9	13.663969119813
22	2661	12	13.769740849244
22	2681	12.1	13.855127433001
22	2701	12.2	13.844018829323
22	2721	12.3	13.747936783102
22	2741	12.4	13.858826460876
22	2761	12.5	13.725225480599
22	2781	12.6	13.746508511866
22	2807	12.7	13.712288938265
22	2833	12.8	13.846902374504
22	2859	12.9	13.757606617035
22	2885	13	13.729863826453
22	2912	13.1	13.778040573501
22	2938	13.2	13.745585520205
22	2964	13.3	13.714041364414
22	2990	13.4	13.748238734761
22	3031	13.5	13.78599634415
22	3057	13.6	13.842695169244
22	3083	13.7	13.738553850073
22	3359	13.8	13.899986162409
22	3384	13.9	13.67866558393
22	3409	14	13.779147845611
22	3434	14.1	13.679925598879
22	3459	14.2	13.782062106044
22	3484	14.3	13.717389454867
22	3509	14.4	13.853385445348
22	3546	14.5	13.731288163725
22	3571	14.6	13.723881434568
22	3596	14.7	13.848783559608
22	3621	14.8	13.719479834812
22	3646	14.9	13.876850960345
22	3671	15	13.717076560401
22	3696	15.1	13.828271238634
22	3727	15.2	13.76108769069
22	3758	15.3	13.829567473941
22	3789	15.4	13.754888217349
22	3832	15.5	13.659607460583
22	3863	15.6	13.721109711891
22	3895	15.7	13.826744928991
22	3926	15.8	13.656435332994
22	3972	15.9	13.780407423363
22	4003	16	13.797376964625
22	4034	16.1	13.772170254414
22	4065	16.2	13.757697310857
22	4277	16.3	13.706488165923
22	4440	16.4	13.706195054436
22	4471	16.5	13.718601407984
[...]
28	3250	13.730362890128	90
28	4253	16.249685122427	90
28	5490	18.413538892564	90
28	7190	21.632736580779	90
28	8222	23.236104657228	90
28	10374	26.217367208727	90
28	12163	28.534020593978	90
28	15024	31.905125860366	90
28	16553	33.617770188433	90
28	18875	35.805322591815	90
28	21719	38.511926156068	90
28	25848	41.70499075157	90
28	29909	44.444816331236	90
28	34296	46.905112454288	90
28	36882	48.323678298053	90
28	42837	51.819729111942	90
28	47532	54.343443704779	90
28	51403	56.24518561095	90
28	57554	59.005131937859	90
28	64094	62.005182175886	90
28	66988	63.210916196578	90
28	75319	66.736326440199	90
28	81894	69.105286068129	90
28	86598	70.819341167457	90
28	97119	73.834291276074	90
28	106061	76.232881396909	90
28	113478	78.905102582097	90
29	162	1.005168443747	90
29	584	3.828944853768	90
29	1134	7.005048906448	90
29	1566	8.505191183543	90
29	2262	10.845961532874	90
29	3252	13.730370730128	90
29	4255	16.249692962427	90
29	5492	18.413546732564	90
29	7192	21.632744420779	90
29	8224	23.236112497228	90
29	10382	26.217375048727	90
29	12171	28.534028433978	90
29	15030	31.905133700366	90
29	16557	33.617778028433	90
29	18885	35.805330431815	90
29	21732	38.511933996068	90
29	25862	41.70499859157	90
29	29925	44.444824171236	90
29	34312	46.905120294288	90
29	36898	48.323686138053	90
29	42856	51.819736951942	90
29	47550	54.343451544779	90
29	51420	56.24519345095	90
29	57574	59.005139777859	90
29	64114	62.005190015886	90
29	67007	63.210924036578	90
29	75339	66.736334280199	90
29	81914	69.105293908129	90
29	86617	70.819349007457	90
29	97139	73.834299116074	90
29	106081	76.232889236909	90
29	113495	78.905110422097	90
30	163	1.005168543747	90
30	585	3.828944953768	90
30	1135	7.005049006448	90
30	1567	8.505191283543	90
30	2263	10.845961632874	90
30	3253	13.730370830128	90
30	4256	16.249693062427	90
30	5493	18.413546832564	90
30	7193	21.632744520779	90
30	8225	23.236112597228	90
30	10383	26.217375148727	90
30	12172	28.534028533978	90
30	15031	31.905133800366	90
30	16558	33.617778128433	90
30	18886	35.805330531815	90
30	21733	38.511934096068	90
30	25863	41.70499869157	90
30	29926	44.444824271236	90
30	34313	46.905120394288	90
30	36899	48.323686238053	90
30	42857	51.819737051942	90
30	47551	54.343451644779	90
30	51421	56.24519355095	90
30	57575	59.005139877859	90
30	64115	62.005190115886	90
30	67008	63.210924136578	90
30	75340	66.736334380199	90
30	81915	69.105294008129	90
30	86618	70.819349107457	90
30	97140	73.834299216074	90
30	106082	76.232889336909	90
30	113496	78.905110522097	90
31	163	1.005168543747	90
31	585	3.828944953768	90
31	1135	7.005049006448	90
31	1567	8.505191283543	90
31	2263	10.845961632874	90
31	3253	13.730370830128	90
31	4256	16.249693062427	90
31	5493	18.413546832564	90
31	7193	21.632744520779	90
31	8225	23.236112597228	90
31	10383	26.217375148727	90
31	12172	28.534028533978	90
31	15031	31.905133800366	90
31	16558	33.617778128433	90
31	18886	35.805330531815	90
31	21733	38.511934096068	90
31	25863	41.70499869157	90
31	29926	44.444824271236	90
31	34313	46.905120394288	90
31	36899	48.323686238053	90
31	42857	51.819737051942	90
31	47551	54.343451644779	90
31	51421	56.24519355095	90
31	57575	59.005139877859	90
31	64115	62.005190115886	90
31	67008	63.210924136578	90
31	75340	66.736334380199	90
31	81915	69.105294008129	90
31	86618	70.819349107457	90
31	97140	73.834299216074	90
31	106082	76.232889336909	90
31	113496	78.905110522097	90
32	164	1.005168543747	72
32	586	3.828944953768	72
32	1136	7.005049006448	72
32	1568	8.505191283543	72
32	2264	10.845961632874	72
32	3254	13.730370830128	72
32	4257	16.249693062427	72
32	5494	18.413546832564	72
32	7194	21.632744520779	72
32	8226	23.236112597228	72
32	10384	26.217375148727	72
32	12173	28.534028533978	72
32	15032	31.905133800366	72
32	16559	33.617778128433	72
32	18887	35.805330531815	72
32	21734	38.511934096068	72
32	25864	41.70499869157	72
32	29927	44.444824271236	72
32	34314	46.905120394288	72
32	36900	48.323686238053	72
32	42858	51.819737051942	72
32	47552	54.343451644779	72
32	51422	56.24519355095	72
32	57576	59.005139877859	72
32	64116	62.005190115886	72
32	67009	63.210924136578	72
32	75341	66.736334380199	72
32	81916	69.105294008129	72
32	86619	70.819349107457	72
32	97141	73.834299216074	72
32	106083	76.232889336909	72
32	113497	78.905110522097	72
46	1295	7.744067511521	1000
46	3016	13.476276327856	1000
46	6031	19.622372942977	1000
46	12895	29.59437688347	1000
46	19888	36.724388829899	1000
46	27154	42.373201964657	1000
46	36358	48.152014868102	1000
46	52482	56.565631609411	1000
46	73774	66.085611490999	1000
46	96306	73.730915274937	1000
47	1297	7.744067511521	1008
47	3017	13.476276327856	1008
47	6032	19.622372942977	1008
47	12896	29.59437688347	1008
47	19889	36.724388829899	1008
47	27155	42.373201964657	1008
47	36359	48.152014868102	1008
47	52483	56.565631609411	1008
47	73775	66.085611490999	1008
47	96307	73.730915274937	1008
48	1301	7.744067511521	80
48	1717	8.744067511521	80
48	1891	9.744067511521	80
48	3021	13.476276327856	80
48	3536	14.476276327856	80
48	3822	15.476276327856	80
48	6036	19.622372942977	80
48	6434	20.622372942977	80
48	6979	21.622372942977	80
48	12900	29.59437688347	80
48	13493	30.59437688347	80
48	14528	31.59437688347	80
48	19893	36.724388829899	80
48	20805	37.724388829899	80
48	22268	38.724388829899	80
48	27159	42.373201964657	80
48	28444	43.373201964657	80
48	29529	44.373201964657	80
48	36363	48.152014868102	80
48	38590	49.152014868102	80
48	39784	50.152014868102	80
48	52487	56.565631609411	80
48	54199	57.565631609411	80
48	56392	58.565631609411	80
48	73779	66.085611490999	80
48	76509	67.085611490999	80
48	78687	68.085611490999	80
48	96311	73.730915274937	80
48	99666	74.730915274937	80
48	104063	75.730915274937	80
49	1303	7.744067511521	98
49	1719	8.744067511521	98
49	1893	9.744067511521	98
49	3023	13.476276327856	98
49	3538	14.476276327856	98
49	3824	15.476276327856	98
49	6038	19.622372942977	98
49	6436	20.622372942977	98
49	6981	21.622372942977	98
49	12902	29.59437688347	98
49	13495	30.59437688347	98
49	14530	31.59437688347	98
49	19895	36.724388829899	98
49	20807	37.724388829899	98
49	22270	38.724388829899	98
49	27161	42.373201964657	98
49	28446	43.373201964657	98
49	29531	44.373201964657	98
49	36365	48.152014868102	98
49	38592	49.152014868102	98
49	39786	50.152014868102	98
49	52489	56.565631609411	98
49	54201	57.565631609411	98
49	56394	58.565631609411	98
49	73781	66.085611490999	98
49	76511	67.085611490999	98
49	78689	68.085611490999	98
49	96313	73.730915274937	98
49	99668	74.730915274937	98
49	104065	75.730915274937	98
50	1303	7.744067511521	0
50	1719	8.744067511521	0
50	1893	9.744067511521	0
50	3023	13.476276327856	0
50	3538	14.476276327856	0
50	3824	15.476276327856	0
50	6038	19.622372942977	0
50	6436	20.622372942977	0
50	6981	21.622372942977	0
50	12902	29.59437688347	0
50	13495	30.59437688347	0
50	14530	31.59437688347	0
50	19895	36.724388829899	0
50	20807	37.724388829899	0
50	22270	38.724388829899	0
50	27161	42.373201964657	0
50	28446	43.373201964657	0
50	29531	44.373201964657	0
50	36365	48.152014868102	0
50	38592	49.152014868102	0
50	39786	50.152014868102	0
50	52489	56.565631609411	0
50	54201	57.565631609411	0
50	56394	58.565631609411	0
50	73781	66.085611490999	0
50	76511	67.085611490999	0
50	78689	68.085611490999	0
50	96313	73.730915274937	0
50	99668	74.730915274937	0
50	104065	75.730915274937	0
51	1305	7.744067511521	98
51	1721	8.744067511521	98
51	1895	9.744067511521	98
51	3025	13.476276327856	98
51	3540	14.476276327856	98
51	3826	15.476276327856	98
51	6040	19.622372942977	98
51	6438	20.622372942977	98
51	6983	21.622372942977	98
51	12904	29.59437688347	98
51	13497	30.59437688347	98
51	14532	31.59437688347	98
51	19897	36.724388829899	98
51	20809	37.724388829899	98
51	22272	38.724388829899	98
51	27163	42.373201964657	98
51	28448	43.373201964657	98
51	29533	44.373201964657	98
51	36367	48.152014868102	98
51	38594	49.152014868102	98
51	39788	50.152014868102	98
51	52491	56.565631609411	98
51	54203	57.565631609411	98
51	56396	58.565631609411	98
51	73783	66.085611490999	98
51	76513	67.085611490999	98
51	78691	68.085611490999	98
51	96315	73.730915274937	98
51	99670	74.730915274937	98
51	104067	75.730915274937	98
52	1306	7.744075991521	98
52	1722	8.744075991521	98
52	1896	9.744075991521	98
52	3026	13.476284807856	98
52	3541	14.476284807856	98
52	3827	15.476284807856	98
52	6041	19.622381422977	98
52	6439	20.622381422977	98
52	6984	21.622381422977	98
52	12905	29.59438536347	98
52	13498	30.59438536347	98
52	14533	31.59438536347	98
52	19898	36.724397309899	98
52	20810	37.724397309899	98
52	22273	38.724397309899	98
52	27164	42.373210444657	98
52	28449	43.373210444657	98
52	29534	44.373210444657	98
52	36368	48.152023348102	98
52	38595	49.152023348102	98
52	39789	50.152023348102	98
52	52492	56.565640089411	98
52	54204	57.565640089411	98
52	56397	58.565640089411	98
52	73784	66.085619970999	98
52	76514	67.085619970999	98
52	78692	68.085619970999	98
52	96316	73.730923754937	98
52	99671	74.730923754937	98
52	104068	75.730923754937	98
53	1307	7.744076091521	98
53	1723	8.744076091521	98
53	1897	9.744076091521	98
53	3027	13.476284907856	98
53	3542	14.476284907856	98
53	3828	15.476284907856	98
53	6042	19.622381522977	98
53	6440	20.622381522977	98
53	6985	21.622381522977	98
53	12906	29.59438546347	98
53	13499	30.59438546347	98
53	14534	31.59438546347	98
53	19899	36.724397409899	98
53	20811	37.724397409899	98
53	22274	38.724397409899	98
53	27165	42.373210544657	98
53	28450	43.373210544657	98
53	29535	44.373210544657	98
53	36369	48.152023448102	98
53	38596	49.152023448102	98
53	39790	50.152023448102	98
53	52493	56.565640189411	98
53	54205	57.565640189411	98
53	56398	58.565640189411	98
53	73785	66.085620070999	98
53	76515	67.085620070999	98
53	78693	68.085620070999	98
53	96317	73.730923854937	98
53	99672	74.730923854937	98
53	104069	75.730923854937	98
54	1307	7.744076091521	98
54	1723	8.744076091521	98
54	1897	9.744076091521	98
54	3027	13.476284907856	98
54	3542	14.476284907856	98
54	3828	15.476284907856	98
54	6042	19.622381522977	98
54	6440	20.622381522977	98
54	6985	21.622381522977	98
54	12906	29.59438546347	98
54	13499	30.59438546347	98
54	14534	31.59438546347	98
54	19899	36.724397409899	98
54	20811	37.724397409899	98
54	22274	38.724397409899	98
54	27165	42.373210544657	98
54	28450	43.373210544657	98
54	29535	44.373210544657	98
54	36369	48.152023448102	98
54	38596	49.152023448102	98
54	39790	50.152023448102	98
54	52493	56.565640189411	98
54	54205	57.565640189411	98
54	56398	58.565640189411	98
54	73785	66.085620070999	98
54	76515	67.085620070999	98
54	78693	68.085620070999	98
54	96317	73.730923854937	98
54	99672	74.730923854937	98
54	104069	75.730923854937	98
55	1308	7.744076091521	80
55	1724	8.744076091521	80
55	1898	9.744076091521	80
55	3028	13.476284907856	80
55	3543	14.476284907856	80
55	3829	15.476284907856	80
55	6043	19.622381522977	80
55	6441	20.622381522977	80
55	6986	21.622381522977	80
55	12907	29.59438546347	80
55	13500	30.59438546347	80
55	14535	31.59438546347	80
55	19900	36.724397409899	80
55	20812	37.724397409899	80
55	22275	38.724397409899	80
55	27166	42.373210544657	80
55	28451	43.373210544657	80
55	29536	44.373210544657	80
55	36370	48.152023448102	80
55	38597	49.152023448102	80
55	39791	50.152023448102	80
55	52494	56.565640189411	80
55	54206	57.565640189411	80
55	56399	58.565640189411	80
55	73786	66.085620070999	80
55	76516	67.085620070999	80
55	78694	68.085620070999	80
55	96318	73.730923854937	80
55	99673	74.730923854937	80
55	104070	75.730923854937	80
58	1348	7.964223081945	1000
58	3947	15.812315103831	1000
58	9874	25.721462038346	1000
58	17313	34.273740809877	1000
58	23446	39.695181578864	1000
58	33013	46.132698431612	1000
58	45795	53.446063947632	1000
58	57952	59.172274611193	1000
58	70805	64.718028043864	1000
58	85071	70.432679140942	1000
58	104046	75.706787286328	1000
59	1350	7.964223081945	1008
59	3948	15.812315103831	1008
59	9875	25.721462038346	1008
59	17314	34.273740809877	1008
59	23447	39.695181578864	1008
59	33014	46.132698431612	1008
59	45796	53.446063947632	1008
59	57953	59.172274611193	1008
59	70806	64.718028043864	1008
59	85072	70.432679140942	1008
59	104047	75.706787286328	1008
60	1354	7.964223081945	80
60	1766	8.964223081945	80
60	1940	9.964223081945	80
60	3952	15.812315103831	80
60	4583	16.812315103831	80
60	4967	17.812315103831	80
60	9879	25.721462038346	80
60	10782	26.721462038346	80
60	11306	27.721462038346	80
60	17318	34.273740809877	80
60	17993	35.273740809877	80
60	19546	36.273740809877	80
60	23451	39.695181578864	80
60	24650	40.695181578864	80
60	25476	41.695181578864	80
60	33018	46.132698431612	80
60	34707	47.132698431612	80
60	36325	48.132698431612	80
60	45800	53.446063947632	80
60	48103	54.446063947632	80
60	49658	55.446063947632	80
60	57957	59.172274611193	80
60	60037	60.172274611193	80
60	61769	61.172274611193	80
60	70810	64.718028043864	80
60	73063	65.718028043864	80
60	74958	66.718028043864	80
60	85076	70.432679140942	80
60	88106	71.432679140942	80
60	92366	72.432679140942	80
60	104051	75.706787286328	80
60	108101	76.706787286328	80
60	110796	77.706787286328	80
61	1356	7.964223081945	98
61	1768	8.964223081945	98
61	1942	9.964223081945	98
61	3954	15.812315103831	98
61	4585	16.812315103831	98
61	4969	17.812315103831	98
61	9881	25.721462038346	98
61	10784	26.721462038346	98
61	11308	27.721462038346	98
61	17320	34.273740809877	98
61	17995	35.273740809877	98
61	19548	36.273740809877	98
61	23453	39.695181578864	98
61	24652	40.695181578864	98
61	25478	41.695181578864	98
61	33020	46.132698431612	98
61	34709	47.132698431612	98
61	36327	48.132698431612	98
61	45802	53.446063947632	98
61	48105	54.446063947632	98
61	49660	55.446063947632	98
61	57959	59.172274611193	98
61	60039	60.172274611193	98
61	61771	61.172274611193	98
61	70812	64.718028043864	98
61	73065	65.718028043864	98
61	74960	66.718028043864	98
61	85078	70.432679140942	98
61	88108	71.432679140942	98
61	92368	72.432679140942	98
61	104053	75.706787286328	98
61	108103	76.706787286328	98
61	110798	77.706787286328	98
62	1356	7.964223081945	0
62	1768	8.964223081945	0
62	1942	9.964223081945	0
62	3954	15.812315103831	0
62	4585	16.812315103831	0
62	4969	17.812315103831	0
62	9881	25.721462038346	0
62	10784	26.721462038346	0
62	11308	27.721462038346	0
62	17320	34.273740809877	0
62	17995	35.273740809877	0
62	19548	36.273740809877	0
62	23453	39.695181578864	0
62	24652	40.695181578864	0
62	25478	41.695181578864	0
62	33020	46.132698431612	0
62	34709	47.132698431612	0
62	36327	48.132698431612	0
62	45802	53.446063947632	0
62	48105	54.446063947632	0
62	49660	55.446063947632	0
62	57959	59.172274611193	0
62	60039	60.172274611193	0
62	61771	61.172274611193	0
62	70812	64.718028043864	0
62	73065	65.718028043864	0
62	74960	66.718028043864	0
62	85078	70.432679140942	0
62	88108	71.432679140942	0
62	92368	72.432679140942	0
62	104053	75.706787286328	0
62	108103	76.706787286328	0
62	110798	77.706787286328	0
63	1358	7.964223081945	98
63	1770	8.964223081945	98
63	1944	9.964223081945	98
63	3956	15.812315103831	98
63	4587	16.812315103831	98
63	4971	17.812315103831	98
63	9883	25.721462038346	98
63	10786	26.721462038346	98
63	11310	27.721462038346	98
63	17322	34.273740809877	98
63	17997	35.273740809877	98
63	19550	36.273740809877	98
63	23455	39.695181578864	98
63	24654	40.695181578864	98
63	25480	41.695181578864	98
63	33022	46.132698431612	98
63	34711	47.132698431612	98
63	36329	48.132698431612	98
63	45804	53.446063947632	98
63	48107	54.446063947632	98
63	49662	55.446063947632	98
63	57961	59.172274611193	98
63	60041	60.172274611193	98
63	61773	61.172274611193	98
63	70814	64.718028043864	98
63	73067	65.718028043864	98
63	74962	66.718028043864	98
63	85080	70.432679140942	98
63	88110	71.432679140942	98
63	92370	72.432679140942	98
63	104055	75.706787286328	98
63	108105	76.706787286328	98
63	110800	77.706787286328	98
64	1359	7.964231561945	98
64	1771	8.964231561945	98
64	1945	9.964231561945	98
64	3957	15.812323583831	98
64	4588	16.812323583831	98
64	4972	17.812323583831	98
64	9884	25.721470518346	98
64	10787	26.721470518346	98
64	11311	27.721470518346	98
64	17323	34.273749289877	98
64	17998	35.273749289877	98
64	19551	36.273749289877	98
64	23456	39.695190058864	98
64	24655	40.695190058864	98
64	25481	41.695190058864	98
64	33023	46.132706911612	98
64	34712	47.132706911612	98
64	36330	48.132706911612	98
64	45805	53.446072427632	98
64	48108	54.446072427632	98
64	49663	55.446072427632	98
64	57962	59.172283091193	98
64	60042	60.172283091193	98
64	61774	61.172283091193	98
64	70815	64.718036523864	98
64	73068	65.718036523864	98
64	74963	66.718036523864	98
64	85081	70.432687620942	98
64	88111	71.432687620942	98
64	92371	72.432687620942	98
64	104056	75.706795766328	98
64	108106	76.706795766328	98
64	110801	77.706795766328	98
65	1360	7.964231661945	98
65	1772	8.964231661945	98
65	1946	9.964231661945	98
65	3958	15.812323683831	98
65	4589	16.812323683831	98
65	4973	17.812323683831	98
65	9885	25.721470618346	98
65	10788	26.721470618346	98
65	11312	27.721470618346	98
65	17324	34.273749389877	98
65	17999	35.273749389877	98
65	19552	36.273749389877	98
65	23457	39.695190158864	98
65	24656	40.695190158864	98
65	25482	41.695190158864	98
65	33024	46.132707011612	98
65	34713	47.132707011612	98
65	36331	48.132707011612	98
65	45806	53.446072527632	98
65	48109	54.446072527632	98
65	49664	55.446072527632	98
65	57963	59.172283191193	98
65	60043	60.172283191193	98
65	61775	61.172283191193	98
65	70816	64.718036623864	98
65	73069	65.718036623864	98
65	74964	66.718036623864	98
65	85082	70.432687720942	98
65	88112	71.432687720942	98
65	92372	72.432687720942	98
65	104057	75.706795866328	98
65	108107	76.706795866328	98
65	110802	77.706795866328	98
66	1360	7.964231661945	98
66	1772	8.964231661945	98
66	1946	9.964231661945	98
66	3958	15.812323683831	98
66	4589	16.812323683831	98
66	4973	17.812323683831	98
66	9885	25.721470618346	98
66	10788	26.721470618346	98
66	11312	27.721470618346	98
66	17324	34.273749389877	98
66	17999	35.273749389877	98
66	19552	36.273749389877	98
66	23457	39.695190158864	98
66	24656	40.695190158864	98
66	25482	41.695190158864	98
66	33024	46.132707011612	98
66	34713	47.132707011612	98
66	36331	48.132707011612	98
66	45806	53.446072527632	98
66	48109	54.446072527632	98
66	49664	55.446072527632	98
66	57963	59.172283191193	98
66	60043	60.172283191193	98
66	61775	61.172283191193	98
66	70816	64.718036623864	98
66	73069	65.718036623864	98
66	74964	66.718036623864	98
66	85082	70.432687720942	98
66	88112	71.432687720942	98
66	92372	72.432687720942	98
66	104057	75.706795866328	98
66	108107	76.706795866328	98
66	110802	77.706795866328	98
67	1361	7.964231661945	80
67	1773	8.964231661945	80
67	1947	9.964231661945	80
67	3959	15.812323683831	80
67	4590	16.812323683831	80
67	4974	17.812323683831	80
67	9886	25.721470618346	80
67	10789	26.721470618346	80
67	11313	27.721470618346	80
67	17325	34.273749389877	80
67	18000	35.273749389877	80
67	19553	36.273749389877	80
67	23458	39.695190158864	80
67	24657	40.695190158864	80
67	25483	41.695190158864	80
67	33025	46.132707011612	80
67	34714	47.132707011612	80
67	36332	48.132707011612	80
67	45807	53.446072527632	80
67	48110	54.446072527632	80
67	49665	55.446072527632	80
67	57964	59.172283191193	80
67	60044	60.172283191193	80
67	61776	61.172283191193	80
67	70817	64.718036623864	80
67	73070	65.718036623864	80
67	74965	66.718036623864	80
67	85083	70.432687720942	80
67	88113	71.432687720942	80
67	92373	72.432687720942	80
67	104058	75.706795866328	80
67	108108	76.706795866328	80
67	110803	77.706795866328	80
68	1651	8.575946824858	1000
68	4743	17.321796005126	1000
68	9047	24.473808202892	1000
68	13548	30.629158468218	1000
68	22297	38.764962017303	1000
68	32245	45.680942483013	1000
68	45349	53.374701773282	1000
68	58568	59.479704302503	1000
68	71985	65.422156382119	1000
68	97532	73.941048459382	1000
69	1653	8.575946824858	1008
69	4744	17.321796005126	1008
69	9048	24.473808202892	1008
69	13549	30.629158468218	1008
69	22298	38.764962017303	1008
69	32246	45.680942483013	1008
69	45350	53.374701773282	1008
69	58569	59.479704302503	1008
69	71986	65.422156382119	1008
69	97533	73.941048459382	1008

