version 2
run Lamda_5-0-20200724-15:43:53-13014
attr configname Lamda_5
attr datetime 20200724-15:43:53
attr experiment Lamda_5
attr inifile CNPOMNeTPP.ini
attr iterationvars ""
attr iterationvarsf ""
attr measurement ""
attr network CNPNet
attr processid 13014
attr repetition 0
attr replication #0
attr resultdir results
attr runnumber 0
attr seedset 0
param *.manager.launchConfig "xmldoc(\"CAN2Mapd6.launchd.xml\")"
param *.node[*].appl.lambda 5
param *.manager.seed 0
param *.n 3
param **.debug false
param **.coreDebug false
param *.playgroundSizeX 2500m
param *.playgroundSizeY 2500m
param *.playgroundSizeZ 50m
param *.annotations.draw true
param *.obstacles.debug false
param *.obstacles.obstacles "xmldoc(\"config.xml\", \"//AnalogueModel[@type='SimpleObstacleShadowing']/obstacles\")"
param *.manager.updateInterval 0.1s
param *.manager.host "\"localhost\""
param *.manager.port 9999
param *.manager.autoShutdown true
param *.rsu[0].mobility.x 50
param *.rsu[0].mobility.y 1025
param *.rsu[0].mobility.z 0
param *.rsu[1].mobility.x 50
param *.rsu[1].mobility.y 684
param *.rsu[1].mobility.z 0
param *.rsu[2].mobility.x 50
param *.rsu[2].mobility.y 340
param *.rsu[2].mobility.z 0
param *.rsu[0].mobility.x 325
param *.rsu[0].mobility.y 1025
param *.rsu[0].mobility.z 0
param *.rsu[*].applType "\"CNPTraCIDemoRSU11p\""
param **.rsu[*].app[*].typename "\"UdpBasicApp\""
param **.rsu[*].app[0].destPort 1000
param **.rsu[*].app[0].messageLength 1000B
param **.node[*].app[0].sendInterval 100ms
param **.rsu[*].app[0].sendInterval "uniform(5s, 10s)"
param **.rsu[*].app[0].sendInterval 100ms
param **.rsu[*].app[0].destAddresses "\"node[*]\""
param **.rsu[*].app[0].localAddress "\"\""
param **.rsu[*].app[0].localPort 1000
param **.*.app[0].localPort 1000
param **.rsu[*].app[0].replyDelay 0s
param **.eth[*].queue.typename "\"EtherQosQueue\""
param **.eth[*].queue.dataQueue.typename "\"DropTailQueue\""
param **.eth[*].queue.dataQueue.frameCapacity 10
param **.eth[*].mac.duplexMode true
param *.rsu[*].appl.headerLength "80 bit"
param *.rsu[*].appl.sendCCM true
param *.rsu[*].appl.dataOnSch true
param *.rsu[*].appl.CCMInterval 1s
param *.rsu[*].appl.CCMUserPriority 7
param *.rsu[*].appl.dataUserPriority 5
param *.connectionManager.sendDirect true
param *.connectionManager.maxInterfDist 700m
param *.connectionManager.drawMaxIntfDist true
param *.**.nic.mac1609_4.useServiceChannel true
param *.**.nic.mac1609_4.txPower 20mW
param *.**.nic.mac1609_4.bitrate 6Mbps
param *.**.nic.phy80211p.sensitivity -89dBm
param *.**.nic.phy80211p.useThermalNoise true
param *.**.nic.phy80211p.thermalNoise -110dBm
param *.**.nic.phy80211p.decider "xmldoc(\"config.xml\")"
param *.**.nic.phy80211p.analogueModels "xmldoc(\"config.xml\")"
param *.**.nic.phy80211p.usePropagationDelay true
param *.**.nic.phy80211p.maxt2cThresh 3.0
param *.**.nic.phy80211p.mint2cThresh 1.0
param *.**.nic.phy80211p.antenna "xmldoc(\"antenna.xml\", \"/root/Antenna[@id='monopole']\")"
param **.node[*].app[*].typename "\"UdpBasicApp\""
param **.node[*].app[0].destPort 1000
param **.node[*].app[0].messageLength 1000B
param **.node[*].app[0].sendInterval 100ms
param **.node[*].app[0].destAddresses "\"rsu[0]\""
param **.node[*].app[0].connectPort 1000
param **.node[0].app[0].startTime uniform(1700s,1700.5s)
param **.node[1].app[0].startTime uniform(1700.5s,1800s)
param **.node[2].app[0].startTime uniform(1800s,1800.5s)
param **.node[3].app[0].startTime uniform(1800.5s,1900s)
param **.node[*].app[0].sendInterval 200ms
param **.node[*].app[0].numCommands int(exponential(10))
param **.node[*].app[0].commandLength intWithUnit(exponential(10B))
param **.node[*].app[0].keyPressDelay exponential(0.1s)
param **.node[*].app[0].commandOutputLength intWithUnit(exponential(40B))
param **.node[*].app[0].thinkTime truncnormal(2s,3s)
param **.node[*].app[0].idleInterval truncnormal(3600s,1200s)
param **.node[*].app[0].reconnectInterval 30s
param *.node[*].applType "\"CNPTraCIDemo11p\""
param *.node[*].appl.headerLength "80 bit"
param *.node[*].appl.sendCCM true
param *.node[*].appl.dataOnSch true
param *.node[*].appl.CCMInterval 0.5s
param *.node[*].appl.maximumAcceleration 5.0
param *.node[*].appl.emergentManeuverTime 3.0
param *.node[*].appl.singleClusterFormationPeriod 12.0
param *.node[*3].appl.tesVeh false
param *.node[*].veinsmobilityType.debug true
param *.node[*].veinsmobility.x 0
param *.node[*].veinsmobility.y 0
param *.node[*].veinsmobility.z 1.895

vector 0 CNPNet.rsu[0].eth[0].queue.pauseQueue queueLength:vector ETV
attr interpolationmode sample-hold
attr title "queue length, vector"
vector 1 CNPNet.rsu[0].eth[0].queue.dataQueue queueLength:vector ETV
attr interpolationmode sample-hold
attr title "queue length, vector"
vector 2 CNPNet.rsu[0].eth[1].queue.pauseQueue queueLength:vector ETV
attr interpolationmode sample-hold
attr title "queue length, vector"
vector 3 CNPNet.rsu[0].eth[1].queue.dataQueue queueLength:vector ETV
attr interpolationmode sample-hold
attr title "queue length, vector"
vector 4 CNPNet.rsu[1].eth[0].queue.pauseQueue queueLength:vector ETV
attr interpolationmode sample-hold
attr title "queue length, vector"
vector 5 CNPNet.rsu[1].eth[0].queue.dataQueue queueLength:vector ETV
attr interpolationmode sample-hold
attr title "queue length, vector"
vector 6 CNPNet.rsu[1].eth[1].queue.pauseQueue queueLength:vector ETV
attr interpolationmode sample-hold
attr title "queue length, vector"
vector 7 CNPNet.rsu[1].eth[1].queue.dataQueue queueLength:vector ETV
attr interpolationmode sample-hold
attr title "queue length, vector"
vector 8 CNPNet.rsu[1].eth[2].queue.pauseQueue queueLength:vector ETV
attr interpolationmode sample-hold
attr title "queue length, vector"
vector 9 CNPNet.rsu[1].eth[2].queue.dataQueue queueLength:vector ETV
attr interpolationmode sample-hold
attr title "queue length, vector"
vector 10 CNPNet.rsu[2].eth[0].queue.pauseQueue queueLength:vector ETV
attr interpolationmode sample-hold
attr title "queue length, vector"
vector 11 CNPNet.rsu[2].eth[0].queue.dataQueue queueLength:vector ETV
attr interpolationmode sample-hold
attr title "queue length, vector"
vector 12 CNPNet.rsu[2].eth[1].queue.pauseQueue queueLength:vector ETV
attr interpolationmode sample-hold
attr title "queue length, vector"
vector 13 CNPNet.rsu[2].eth[1].queue.dataQueue queueLength:vector ETV
attr interpolationmode sample-hold
attr title "queue length, vector"
vector 14 CNPNet.MA[0].eth[0].queue.pauseQueue queueLength:vector ETV
attr interpolationmode sample-hold
attr title "queue length, vector"
vector 15 CNPNet.MA[0].eth[0].queue.dataQueue queueLength:vector ETV
attr interpolationmode sample-hold
attr title "queue length, vector"
vector 16 CNPNet.MA[0].eth[1].queue.pauseQueue queueLength:vector ETV
attr interpolationmode sample-hold
attr title "queue length, vector"
vector 17 CNPNet.MA[0].eth[1].queue.dataQueue queueLength:vector ETV
attr interpolationmode sample-hold
attr title "queue length, vector"
vector 18 CNPNet.MA[0].eth[2].queue.pauseQueue queueLength:vector ETV
attr interpolationmode sample-hold
attr title "queue length, vector"
vector 19 CNPNet.MA[0].eth[2].queue.dataQueue queueLength:vector ETV
attr interpolationmode sample-hold
attr title "queue length, vector"
vector 20 CNPNet.node[0].veinsmobility posx ETV
vector 21 CNPNet.node[0].veinsmobility posy ETV
vector 22 CNPNet.node[0].veinsmobility speed ETV
vector 23 CNPNet.node[0].veinsmobility acceleration ETV
vector 24 CNPNet.node[0].veinsmobility co2emission ETV
vector 25 CNPNet.rsu[2].eth[0].encap encapPk:vector(packetBytes) ETV
attr interpolationmode none
attr source encapPk
attr title "packets encapsulated, vector(packetBytes)"
vector 26 CNPNet.rsu[2].eth[0].queue.dataQueue packetReceived:vector(packetBytes) ETV
attr interpolationmode none
attr title "received packets, vector(packetBytes)"
vector 27 CNPNet.rsu[2].eth[0].queue.dataQueue queueingTime:vector ETV
attr interpolationmode none
attr title "queueing time, vector"
vector 28 CNPNet.rsu[2].eth[0].mac packetReceivedFromUpper:vector(packetBytes) ETV
attr interpolationmode none
attr source packetReceivedFromUpper
attr title "packet bytes from higher layer, vector(packetBytes)"
vector 29 CNPNet.rsu[2].eth[0].mac txPk:vector(packetBytes) ETV
attr interpolationmode none
attr source packetSentToLower
attr title "packets transmitted, vector(packetBytes)"
vector 30 CNPNet.MA[0].eth[2].mac rxPkOk:vector(packetBytes) ETV
attr interpolationmode none
attr source rxPkOk
attr title "packets received OK, vector(packetBytes)"
vector 31 CNPNet.MA[0].eth[2].mac passedUpPk:vector(packetBytes) ETV
attr interpolationmode none
attr source packetSentToUpper
attr title "packets passed to higher layer, vector(packetBytes)"
vector 32 CNPNet.MA[0].eth[2].encap decapPk:vector(packetBytes) ETV
attr interpolationmode none
attr source decapPk
attr title "packets decapsulated, vector(packetBytes)"
vector 33 CNPNet.node[1].veinsmobility posx ETV
vector 34 CNPNet.node[1].veinsmobility posy ETV
vector 35 CNPNet.node[1].veinsmobility speed ETV
vector 36 CNPNet.node[1].veinsmobility acceleration ETV
vector 37 CNPNet.node[1].veinsmobility co2emission ETV
vector 38 CNPNet.node[2].veinsmobility posx ETV
vector 39 CNPNet.node[2].veinsmobility posy ETV
vector 40 CNPNet.node[2].veinsmobility speed ETV
vector 41 CNPNet.node[2].veinsmobility acceleration ETV
vector 42 CNPNet.node[2].veinsmobility co2emission ETV
vector 43 CNPNet.node[3].veinsmobility posx ETV
vector 44 CNPNet.node[3].veinsmobility posy ETV
vector 45 CNPNet.node[3].veinsmobility speed ETV
vector 46 CNPNet.node[3].veinsmobility acceleration ETV
vector 47 CNPNet.node[3].veinsmobility co2emission ETV
vector 48 CNPNet.node[4].veinsmobility posx ETV
vector 49 CNPNet.node[4].veinsmobility posy ETV
vector 50 CNPNet.node[4].app[0] packetSent:vector(packetBytes) ETV
attr interpolationmode none
attr source packetSent
attr title "packets sent, vector(packetBytes)"
vector 51 CNPNet.node[4].udp packetSent:vector(packetBytes) ETV
attr interpolationmode none
attr source packetSent
attr title "packets sent, vector(packetBytes)"
vector 52 CNPNet.node[4].veinsmobility speed ETV
vector 53 CNPNet.node[4].veinsmobility acceleration ETV
vector 54 CNPNet.node[4].veinsmobility co2emission ETV
vector 55 CNPNet.rsu[0].app[0] packetSent:vector(packetBytes) ETV
attr interpolationmode none
attr source packetSent
attr title "packets sent, vector(packetBytes)"
vector 56 CNPNet.rsu[0].udp packetSent:vector(packetBytes) ETV
attr interpolationmode none
attr source packetSent
attr title "packets sent, vector(packetBytes)"
vector 57 CNPNet.rsu[0].eth[0].encap encapPk:vector(packetBytes) ETV
attr interpolationmode none
attr source encapPk
attr title "packets encapsulated, vector(packetBytes)"
vector 58 CNPNet.rsu[0].eth[0].queue.dataQueue packetReceived:vector(packetBytes) ETV
attr interpolationmode none
attr title "received packets, vector(packetBytes)"
vector 59 CNPNet.rsu[0].eth[0].queue.dataQueue queueingTime:vector ETV
attr interpolationmode none
attr title "queueing time, vector"
vector 60 CNPNet.rsu[0].eth[0].mac packetReceivedFromUpper:vector(packetBytes) ETV
attr interpolationmode none
attr source packetReceivedFromUpper
attr title "packet bytes from higher layer, vector(packetBytes)"
vector 61 CNPNet.rsu[0].eth[0].mac txPk:vector(packetBytes) ETV
attr interpolationmode none
attr source packetSentToLower
attr title "packets transmitted, vector(packetBytes)"
vector 62 CNPNet.MA[0].eth[0].mac rxPkOk:vector(packetBytes) ETV
attr interpolationmode none
attr source rxPkOk
attr title "packets received OK, vector(packetBytes)"
vector 63 CNPNet.MA[0].eth[0].mac passedUpPk:vector(packetBytes) ETV
attr interpolationmode none
attr source packetSentToUpper
attr title "packets passed to higher layer, vector(packetBytes)"
vector 64 CNPNet.MA[0].eth[0].encap decapPk:vector(packetBytes) ETV
attr interpolationmode none
attr source decapPk
attr title "packets decapsulated, vector(packetBytes)"
vector 65 CNPNet.rsu[1].app[0] packetSent:vector(packetBytes) ETV
attr interpolationmode none
attr source packetSent
attr title "packets sent, vector(packetBytes)"
vector 66 CNPNet.rsu[1].udp packetSent:vector(packetBytes) ETV
attr interpolationmode none
attr source packetSent
attr title "packets sent, vector(packetBytes)"
vector 67 CNPNet.rsu[1].eth[0].encap encapPk:vector(packetBytes) ETV
attr interpolationmode none
attr source encapPk
attr title "packets encapsulated, vector(packetBytes)"
vector 68 CNPNet.rsu[1].eth[0].queue.dataQueue packetReceived:vector(packetBytes) ETV
attr interpolationmode none
attr title "received packets, vector(packetBytes)"
vector 69 CNPNet.rsu[1].eth[0].queue.dataQueue queueingTime:vector ETV
attr interpolationmode none
attr title "queueing time, vector"
vector 70 CNPNet.rsu[1].eth[0].mac packetReceivedFromUpper:vector(packetBytes) ETV
attr interpolationmode none
attr source packetReceivedFromUpper
attr title "packet bytes from higher layer, vector(packetBytes)"
vector 71 CNPNet.rsu[1].eth[0].mac txPk:vector(packetBytes) ETV
attr interpolationmode none
attr source packetSentToLower
attr title "packets transmitted, vector(packetBytes)"
vector 72 CNPNet.MA[0].eth[1].mac rxPkOk:vector(packetBytes) ETV
attr interpolationmode none
attr source rxPkOk
attr title "packets received OK, vector(packetBytes)"
vector 73 CNPNet.MA[0].eth[1].mac passedUpPk:vector(packetBytes) ETV
attr interpolationmode none
attr source packetSentToUpper
attr title "packets passed to higher layer, vector(packetBytes)"
vector 74 CNPNet.MA[0].eth[1].encap decapPk:vector(packetBytes) ETV
attr interpolationmode none
attr source decapPk
attr title "packets decapsulated, vector(packetBytes)"
vector 75 CNPNet.node[5].veinsmobility posx ETV
vector 76 CNPNet.node[5].veinsmobility posy ETV
vector 77 CNPNet.node[5].app[0] packetSent:vector(packetBytes) ETV
attr interpolationmode none
attr source packetSent
attr title "packets sent, vector(packetBytes)"
vector 78 CNPNet.node[5].udp packetSent:vector(packetBytes) ETV
attr interpolationmode none
attr source packetSent
attr title "packets sent, vector(packetBytes)"
vector 79 CNPNet.node[5].veinsmobility speed ETV
vector 80 CNPNet.rsu[2].app[0] packetSent:vector(packetBytes) ETV
attr interpolationmode none
attr source packetSent
attr title "packets sent, vector(packetBytes)"
vector 81 CNPNet.rsu[2].udp packetSent:vector(packetBytes) ETV
attr interpolationmode none
attr source packetSent
attr title "packets sent, vector(packetBytes)"
vector 82 CNPNet.node[5].veinsmobility acceleration ETV
vector 83 CNPNet.node[5].veinsmobility co2emission ETV
vector 84 CNPNet.node[0].udp packetReceived:vector(packetBytes) ETV
attr interpolationmode none
attr source packetReceived
attr title "packets received, vector(packetBytes)"
vector 85 CNPNet.node[0].udp droppedPkWrongPort:vector(count) ETV
attr interpolationmode none
attr source packetDropReasonIsNoPortFound(packetDropped)
attr title "packets dropped (wrong port), vector(count)"
vector 86 CNPNet.node[6].veinsmobility posx ETV
vector 87 CNPNet.node[6].veinsmobility posy ETV
vector 88 CNPNet.node[6].app[0] packetSent:vector(packetBytes) ETV
attr interpolationmode none
attr source packetSent
attr title "packets sent, vector(packetBytes)"
vector 89 CNPNet.node[6].udp packetSent:vector(packetBytes) ETV
attr interpolationmode none
attr source packetSent
attr title "packets sent, vector(packetBytes)"
vector 90 CNPNet.node[6].veinsmobility speed ETV
vector 91 CNPNet.node[6].veinsmobility acceleration ETV
vector 92 CNPNet.node[6].veinsmobility co2emission ETV
vector 93 CNPNet.node[7].veinsmobility posx ETV
vector 94 CNPNet.node[7].veinsmobility posy ETV
vector 95 CNPNet.node[7].app[0] packetSent:vector(packetBytes) ETV
attr interpolationmode none
attr source packetSent
attr title "packets sent, vector(packetBytes)"
vector 96 CNPNet.node[7].udp packetSent:vector(packetBytes) ETV
attr interpolationmode none
attr source packetSent
attr title "packets sent, vector(packetBytes)"
vector 97 CNPNet.node[7].veinsmobility speed ETV
vector 98 CNPNet.node[7].veinsmobility acceleration ETV
vector 99 CNPNet.node[7].veinsmobility co2emission ETV
vector 100 CNPNet.node[8].veinsmobility posx ETV
vector 101 CNPNet.node[8].veinsmobility posy ETV
vector 102 CNPNet.node[8].app[0] packetSent:vector(packetBytes) ETV
attr interpolationmode none
attr source packetSent
attr title "packets sent, vector(packetBytes)"
vector 103 CNPNet.node[8].udp packetSent:vector(packetBytes) ETV
attr interpolationmode none
attr source packetSent
attr title "packets sent, vector(packetBytes)"
vector 104 CNPNet.node[8].veinsmobility speed ETV
vector 105 CNPNet.node[8].veinsmobility acceleration ETV
vector 106 CNPNet.node[8].veinsmobility co2emission ETV
vector 107 CNPNet.node[9].veinsmobility posx ETV
vector 108 CNPNet.node[9].veinsmobility posy ETV
vector 109 CNPNet.node[9].app[0] packetSent:vector(packetBytes) ETV
attr interpolationmode none
attr source packetSent
attr title "packets sent, vector(packetBytes)"
vector 110 CNPNet.node[9].udp packetSent:vector(packetBytes) ETV
attr interpolationmode none
attr source packetSent
attr title "packets sent, vector(packetBytes)"
vector 111 CNPNet.node[9].veinsmobility speed ETV
vector 112 CNPNet.node[9].veinsmobility acceleration ETV
vector 113 CNPNet.node[9].veinsmobility co2emission ETV
vector 114 CNPNet.node[10].veinsmobility posx ETV
vector 115 CNPNet.node[10].veinsmobility posy ETV
vector 116 CNPNet.node[10].app[0] packetSent:vector(packetBytes) ETV
attr interpolationmode none
attr source packetSent
attr title "packets sent, vector(packetBytes)"
vector 117 CNPNet.node[10].udp packetSent:vector(packetBytes) ETV
attr interpolationmode none
attr source packetSent
attr title "packets sent, vector(packetBytes)"
vector 118 CNPNet.node[10].veinsmobility speed ETV
vector 119 CNPNet.node[10].veinsmobility acceleration ETV
vector 120 CNPNet.node[10].veinsmobility co2emission ETV
vector 121 CNPNet.node[11].veinsmobility posx ETV
vector 122 CNPNet.node[11].veinsmobility posy ETV
vector 123 CNPNet.node[11].app[0] packetSent:vector(packetBytes) ETV
attr interpolationmode none
attr source packetSent
attr title "packets sent, vector(packetBytes)"
vector 124 CNPNet.node[11].udp packetSent:vector(packetBytes) ETV
attr interpolationmode none
attr source packetSent
attr title "packets sent, vector(packetBytes)"
vector 125 CNPNet.node[11].veinsmobility speed ETV
vector 126 CNPNet.node[11].veinsmobility acceleration ETV
vector 127 CNPNet.node[11].veinsmobility co2emission ETV
vector 128 CNPNet.node[12].veinsmobility posx ETV
vector 129 CNPNet.node[12].veinsmobility posy ETV
vector 130 CNPNet.node[12].app[0] packetSent:vector(packetBytes) ETV
attr interpolationmode none
attr source packetSent
attr title "packets sent, vector(packetBytes)"
vector 131 CNPNet.node[12].udp packetSent:vector(packetBytes) ETV
attr interpolationmode none
attr source packetSent
attr title "packets sent, vector(packetBytes)"
vector 132 CNPNet.node[12].veinsmobility speed ETV
vector 133 CNPNet.node[12].veinsmobility acceleration ETV
vector 134 CNPNet.node[12].veinsmobility co2emission ETV
vector 135 CNPNet.node[13].veinsmobility posx ETV
vector 136 CNPNet.node[13].veinsmobility posy ETV
vector 137 CNPNet.node[13].app[0] packetSent:vector(packetBytes) ETV
attr interpolationmode none
attr source packetSent
attr title "packets sent, vector(packetBytes)"
vector 138 CNPNet.node[13].udp packetSent:vector(packetBytes) ETV
attr interpolationmode none
attr source packetSent
attr title "packets sent, vector(packetBytes)"
vector 139 CNPNet.node[13].veinsmobility speed ETV
vector 140 CNPNet.node[13].veinsmobility acceleration ETV
vector 141 CNPNet.node[13].veinsmobility co2emission ETV
vector 142 CNPNet.node[14].veinsmobility posx ETV
vector 143 CNPNet.node[14].veinsmobility posy ETV
vector 144 CNPNet.node[14].app[0] packetSent:vector(packetBytes) ETV
attr interpolationmode none
attr source packetSent
attr title "packets sent, vector(packetBytes)"
vector 145 CNPNet.node[14].udp packetSent:vector(packetBytes) ETV
attr interpolationmode none
attr source packetSent
attr title "packets sent, vector(packetBytes)"
vector 146 CNPNet.node[14].veinsmobility speed ETV
vector 147 CNPNet.node[14].veinsmobility acceleration ETV
vector 148 CNPNet.node[14].veinsmobility co2emission ETV
vector 149 CNPNet.node[15].veinsmobility posx ETV
vector 150 CNPNet.node[15].veinsmobility posy ETV
vector 151 CNPNet.node[15].app[0] packetSent:vector(packetBytes) ETV
attr interpolationmode none
attr source packetSent
attr title "packets sent, vector(packetBytes)"
vector 152 CNPNet.node[15].udp packetSent:vector(packetBytes) ETV
attr interpolationmode none
attr source packetSent
attr title "packets sent, vector(packetBytes)"
vector 153 CNPNet.node[15].veinsmobility speed ETV
vector 154 CNPNet.node[15].veinsmobility acceleration ETV
vector 155 CNPNet.node[15].veinsmobility co2emission ETV
vector 156 CNPNet.node[16].veinsmobility posx ETV
vector 157 CNPNet.node[16].veinsmobility posy ETV
vector 158 CNPNet.node[16].app[0] packetSent:vector(packetBytes) ETV
attr interpolationmode none
attr source packetSent
attr title "packets sent, vector(packetBytes)"
vector 159 CNPNet.node[16].udp packetSent:vector(packetBytes) ETV
attr interpolationmode none
attr source packetSent
attr title "packets sent, vector(packetBytes)"
vector 160 CNPNet.node[16].veinsmobility speed ETV
vector 161 CNPNet.node[16].veinsmobility acceleration ETV
vector 162 CNPNet.node[16].veinsmobility co2emission ETV
vector 163 CNPNet.node[17].veinsmobility posx ETV
vector 164 CNPNet.node[17].veinsmobility posy ETV
vector 165 CNPNet.node[17].app[0] packetSent:vector(packetBytes) ETV
attr interpolationmode none
attr source packetSent
attr title "packets sent, vector(packetBytes)"
vector 166 CNPNet.node[17].udp packetSent:vector(packetBytes) ETV
attr interpolationmode none
attr source packetSent
attr title "packets sent, vector(packetBytes)"
vector 167 CNPNet.node[17].veinsmobility speed ETV
vector 168 CNPNet.node[17].veinsmobility acceleration ETV
vector 169 CNPNet.node[17].veinsmobility co2emission ETV
vector 170 CNPNet.node[18].veinsmobility posx ETV
vector 171 CNPNet.node[18].veinsmobility posy ETV
vector 172 CNPNet.node[18].app[0] packetSent:vector(packetBytes) ETV
attr interpolationmode none
attr source packetSent
attr title "packets sent, vector(packetBytes)"
vector 173 CNPNet.node[18].udp packetSent:vector(packetBytes) ETV
attr interpolationmode none
attr source packetSent
attr title "packets sent, vector(packetBytes)"
vector 174 CNPNet.node[18].veinsmobility speed ETV
vector 175 CNPNet.node[18].veinsmobility acceleration ETV
vector 176 CNPNet.node[18].veinsmobility co2emission ETV
vector 177 CNPNet.node[19].veinsmobility posx ETV
vector 178 CNPNet.node[19].veinsmobility posy ETV
vector 179 CNPNet.node[19].app[0] packetSent:vector(packetBytes) ETV
attr interpolationmode none
attr source packetSent
attr title "packets sent, vector(packetBytes)"
vector 180 CNPNet.node[19].udp packetSent:vector(packetBytes) ETV
attr interpolationmode none
attr source packetSent
attr title "packets sent, vector(packetBytes)"
vector 181 CNPNet.node[19].veinsmobility speed ETV
vector 182 CNPNet.node[19].veinsmobility acceleration ETV
vector 183 CNPNet.node[19].veinsmobility co2emission ETV
vector 184 CNPNet.node[20].veinsmobility posx ETV
vector 185 CNPNet.node[20].veinsmobility posy ETV
vector 186 CNPNet.node[20].app[0] packetSent:vector(packetBytes) ETV
attr interpolationmode none
attr source packetSent
attr title "packets sent, vector(packetBytes)"
vector 187 CNPNet.node[20].udp packetSent:vector(packetBytes) ETV
attr interpolationmode none
attr source packetSent
attr title "packets sent, vector(packetBytes)"
vector 188 CNPNet.node[20].veinsmobility speed ETV
vector 189 CNPNet.node[20].veinsmobility acceleration ETV
vector 190 CNPNet.node[20].veinsmobility co2emission ETV
vector 191 CNPNet.node[21].veinsmobility posx ETV
vector 192 CNPNet.node[21].veinsmobility posy ETV
vector 193 CNPNet.node[21].app[0] packetSent:vector(packetBytes) ETV
attr interpolationmode none
attr source packetSent
attr title "packets sent, vector(packetBytes)"
vector 194 CNPNet.node[21].udp packetSent:vector(packetBytes) ETV
attr interpolationmode none
attr source packetSent
attr title "packets sent, vector(packetBytes)"
vector 195 CNPNet.node[21].veinsmobility speed ETV
vector 196 CNPNet.node[21].veinsmobility acceleration ETV
vector 197 CNPNet.node[21].veinsmobility co2emission ETV
vector 198 CNPNet.node[22].veinsmobility posx ETV
vector 199 CNPNet.node[22].veinsmobility posy ETV
vector 200 CNPNet.node[22].app[0] packetSent:vector(packetBytes) ETV
attr interpolationmode none
attr source packetSent
attr title "packets sent, vector(packetBytes)"
vector 201 CNPNet.node[22].udp packetSent:vector(packetBytes) ETV
attr interpolationmode none
attr source packetSent
attr title "packets sent, vector(packetBytes)"
vector 202 CNPNet.node[22].veinsmobility speed ETV
vector 203 CNPNet.node[22].veinsmobility acceleration ETV
vector 204 CNPNet.node[22].veinsmobility co2emission ETV
vector 205 CNPNet.node[23].veinsmobility posx ETV
vector 206 CNPNet.node[23].veinsmobility posy ETV
vector 207 CNPNet.node[23].app[0] packetSent:vector(packetBytes) ETV
attr interpolationmode none
attr source packetSent
attr title "packets sent, vector(packetBytes)"
vector 208 CNPNet.node[23].udp packetSent:vector(packetBytes) ETV
attr interpolationmode none
attr source packetSent
attr title "packets sent, vector(packetBytes)"
vector 209 CNPNet.node[23].veinsmobility speed ETV
vector 210 CNPNet.node[23].veinsmobility acceleration ETV
vector 211 CNPNet.node[23].veinsmobility co2emission ETV
vector 212 CNPNet.node[24].veinsmobility posx ETV
vector 213 CNPNet.node[24].veinsmobility posy ETV
vector 214 CNPNet.node[24].app[0] packetSent:vector(packetBytes) ETV
attr interpolationmode none
attr source packetSent
attr title "packets sent, vector(packetBytes)"
vector 215 CNPNet.node[24].udp packetSent:vector(packetBytes) ETV
attr interpolationmode none
attr source packetSent
attr title "packets sent, vector(packetBytes)"
vector 216 CNPNet.node[24].veinsmobility speed ETV
vector 217 CNPNet.node[24].veinsmobility acceleration ETV
vector 218 CNPNet.node[24].veinsmobility co2emission ETV
vector 219 CNPNet.node[25].veinsmobility posx ETV
vector 220 CNPNet.node[25].veinsmobility posy ETV
vector 221 CNPNet.node[25].app[0] packetSent:vector(packetBytes) ETV
attr interpolationmode none
attr source packetSent
attr title "packets sent, vector(packetBytes)"
vector 222 CNPNet.node[25].udp packetSent:vector(packetBytes) ETV
attr interpolationmode none
attr source packetSent
attr title "packets sent, vector(packetBytes)"
vector 223 CNPNet.node[25].veinsmobility speed ETV
vector 224 CNPNet.node[25].veinsmobility acceleration ETV
vector 225 CNPNet.node[25].veinsmobility co2emission ETV
vector 226 CNPNet.node[26].veinsmobility posx ETV
vector 227 CNPNet.node[26].veinsmobility posy ETV
vector 228 CNPNet.node[26].app[0] packetSent:vector(packetBytes) ETV
attr interpolationmode none
attr source packetSent
attr title "packets sent, vector(packetBytes)"
vector 229 CNPNet.node[26].udp packetSent:vector(packetBytes) ETV
attr interpolationmode none
attr source packetSent
attr title "packets sent, vector(packetBytes)"
vector 230 CNPNet.node[26].veinsmobility speed ETV
vector 231 CNPNet.node[26].veinsmobility acceleration ETV
vector 232 CNPNet.node[26].veinsmobility co2emission ETV
vector 233 CNPNet.node[27].veinsmobility posx ETV
vector 234 CNPNet.node[27].veinsmobility posy ETV
vector 235 CNPNet.node[27].app[0] packetSent:vector(packetBytes) ETV
attr interpolationmode none
attr source packetSent
attr title "packets sent, vector(packetBytes)"
vector 236 CNPNet.node[27].udp packetSent:vector(packetBytes) ETV
attr interpolationmode none
attr source packetSent
attr title "packets sent, vector(packetBytes)"
vector 237 CNPNet.node[27].veinsmobility speed ETV
vector 238 CNPNet.node[27].veinsmobility acceleration ETV
vector 239 CNPNet.node[27].veinsmobility co2emission ETV
vector 240 CNPNet.node[28].veinsmobility posx ETV
vector 241 CNPNet.node[28].veinsmobility posy ETV
vector 242 CNPNet.node[28].app[0] packetSent:vector(packetBytes) ETV
attr interpolationmode none
attr source packetSent
attr title "packets sent, vector(packetBytes)"
vector 243 CNPNet.node[28].udp packetSent:vector(packetBytes) ETV
attr interpolationmode none
attr source packetSent
attr title "packets sent, vector(packetBytes)"
vector 244 CNPNet.node[28].veinsmobility speed ETV
vector 245 CNPNet.node[28].veinsmobility acceleration ETV
vector 246 CNPNet.node[28].veinsmobility co2emission ETV
vector 247 CNPNet.node[29].veinsmobility posx ETV
vector 248 CNPNet.node[29].veinsmobility posy ETV
vector 249 CNPNet.node[29].app[0] packetSent:vector(packetBytes) ETV
attr interpolationmode none
attr source packetSent
attr title "packets sent, vector(packetBytes)"
vector 250 CNPNet.node[29].udp packetSent:vector(packetBytes) ETV
attr interpolationmode none
attr source packetSent
attr title "packets sent, vector(packetBytes)"
vector 251 CNPNet.node[29].veinsmobility speed ETV
vector 252 CNPNet.node[29].veinsmobility acceleration ETV
vector 253 CNPNet.node[29].veinsmobility co2emission ETV
vector 254 CNPNet.node[30].veinsmobility posx ETV
vector 255 CNPNet.node[30].veinsmobility posy ETV
vector 256 CNPNet.node[30].app[0] packetSent:vector(packetBytes) ETV
attr interpolationmode none
attr source packetSent
attr title "packets sent, vector(packetBytes)"
vector 257 CNPNet.node[30].udp packetSent:vector(packetBytes) ETV
attr interpolationmode none
attr source packetSent
attr title "packets sent, vector(packetBytes)"
vector 258 CNPNet.node[30].veinsmobility speed ETV
vector 259 CNPNet.node[30].veinsmobility acceleration ETV
vector 260 CNPNet.node[30].veinsmobility co2emission ETV
vector 261 CNPNet.node[31].veinsmobility posx ETV
vector 262 CNPNet.node[31].veinsmobility posy ETV
vector 263 CNPNet.node[31].app[0] packetSent:vector(packetBytes) ETV
attr interpolationmode none
attr source packetSent
attr title "packets sent, vector(packetBytes)"
vector 264 CNPNet.node[31].udp packetSent:vector(packetBytes) ETV
attr interpolationmode none
attr source packetSent
attr title "packets sent, vector(packetBytes)"
vector 265 CNPNet.node[31].veinsmobility speed ETV
vector 266 CNPNet.node[31].veinsmobility acceleration ETV
vector 267 CNPNet.node[31].veinsmobility co2emission ETV
vector 268 CNPNet.node[32].veinsmobility posx ETV
vector 269 CNPNet.node[32].veinsmobility posy ETV
vector 270 CNPNet.node[32].app[0] packetSent:vector(packetBytes) ETV
attr interpolationmode none
attr source packetSent
attr title "packets sent, vector(packetBytes)"
vector 271 CNPNet.node[32].udp packetSent:vector(packetBytes) ETV
attr interpolationmode none
attr source packetSent
attr title "packets sent, vector(packetBytes)"
vector 272 CNPNet.node[32].veinsmobility speed ETV
vector 273 CNPNet.node[32].veinsmobility acceleration ETV
vector 274 CNPNet.node[32].veinsmobility co2emission ETV
vector 275 CNPNet.node[33].veinsmobility posx ETV
vector 276 CNPNet.node[33].veinsmobility posy ETV
vector 277 CNPNet.node[33].app[0] packetSent:vector(packetBytes) ETV
attr interpolationmode none
attr source packetSent
attr title "packets sent, vector(packetBytes)"
vector 278 CNPNet.node[33].udp packetSent:vector(packetBytes) ETV
attr interpolationmode none
attr source packetSent
attr title "packets sent, vector(packetBytes)"
vector 279 CNPNet.node[33].veinsmobility speed ETV
vector 280 CNPNet.node[33].veinsmobility acceleration ETV
vector 281 CNPNet.node[33].veinsmobility co2emission ETV
vector 282 CNPNet.node[34].veinsmobility posx ETV
vector 283 CNPNet.node[34].veinsmobility posy ETV
vector 284 CNPNet.node[34].app[0] packetSent:vector(packetBytes) ETV
attr interpolationmode none
attr source packetSent
attr title "packets sent, vector(packetBytes)"
vector 285 CNPNet.node[34].udp packetSent:vector(packetBytes) ETV
attr interpolationmode none
attr source packetSent
attr title "packets sent, vector(packetBytes)"
vector 286 CNPNet.node[34].veinsmobility speed ETV
vector 287 CNPNet.node[34].veinsmobility acceleration ETV
vector 288 CNPNet.node[34].veinsmobility co2emission ETV
vector 289 CNPNet.node[35].veinsmobility posx ETV
vector 290 CNPNet.node[35].veinsmobility posy ETV
vector 291 CNPNet.node[35].app[0] packetSent:vector(packetBytes) ETV
attr interpolationmode none
attr source packetSent
attr title "packets sent, vector(packetBytes)"
vector 292 CNPNet.node[35].udp packetSent:vector(packetBytes) ETV
attr interpolationmode none
attr source packetSent
attr title "packets sent, vector(packetBytes)"
vector 293 CNPNet.node[35].veinsmobility speed ETV
vector 294 CNPNet.node[35].veinsmobility acceleration ETV
vector 295 CNPNet.node[35].veinsmobility co2emission ETV
vector 296 CNPNet.node[36].veinsmobility posx ETV
vector 297 CNPNet.node[36].veinsmobility posy ETV
vector 298 CNPNet.node[36].app[0] packetSent:vector(packetBytes) ETV
attr interpolationmode none
attr source packetSent
attr title "packets sent, vector(packetBytes)"
vector 299 CNPNet.node[36].udp packetSent:vector(packetBytes) ETV
attr interpolationmode none
attr source packetSent
attr title "packets sent, vector(packetBytes)"
vector 300 CNPNet.node[36].veinsmobility speed ETV
vector 301 CNPNet.node[36].veinsmobility acceleration ETV
vector 302 CNPNet.node[36].veinsmobility co2emission ETV
vector 303 CNPNet.node[37].veinsmobility posx ETV
vector 304 CNPNet.node[37].veinsmobility posy ETV
vector 305 CNPNet.node[37].app[0] packetSent:vector(packetBytes) ETV
attr interpolationmode none
attr source packetSent
attr title "packets sent, vector(packetBytes)"
vector 306 CNPNet.node[37].udp packetSent:vector(packetBytes) ETV
attr interpolationmode none
attr source packetSent
attr title "packets sent, vector(packetBytes)"
vector 307 CNPNet.node[37].veinsmobility speed ETV
vector 308 CNPNet.node[37].veinsmobility acceleration ETV
vector 309 CNPNet.node[37].veinsmobility co2emission ETV
vector 310 CNPNet.node[38].veinsmobility posx ETV
vector 311 CNPNet.node[38].veinsmobility posy ETV
vector 312 CNPNet.node[38].app[0] packetSent:vector(packetBytes) ETV
attr interpolationmode none
attr source packetSent
attr title "packets sent, vector(packetBytes)"
vector 313 CNPNet.node[38].udp packetSent:vector(packetBytes) ETV
attr interpolationmode none
attr source packetSent
attr title "packets sent, vector(packetBytes)"
vector 314 CNPNet.node[38].veinsmobility speed ETV
vector 315 CNPNet.node[38].veinsmobility acceleration ETV
vector 316 CNPNet.node[38].veinsmobility co2emission ETV
vector 317 CNPNet.node[39].veinsmobility posx ETV
vector 318 CNPNet.node[39].veinsmobility posy ETV
vector 319 CNPNet.node[39].app[0] packetSent:vector(packetBytes) ETV
attr interpolationmode none
attr source packetSent
attr title "packets sent, vector(packetBytes)"
vector 320 CNPNet.node[39].udp packetSent:vector(packetBytes) ETV
attr interpolationmode none
attr source packetSent
attr title "packets sent, vector(packetBytes)"
vector 321 CNPNet.node[39].veinsmobility speed ETV
vector 322 CNPNet.node[39].veinsmobility acceleration ETV
vector 323 CNPNet.node[39].veinsmobility co2emission ETV
vector 324 CNPNet.node[40].veinsmobility posx ETV
vector 325 CNPNet.node[40].veinsmobility posy ETV
vector 326 CNPNet.node[40].app[0] packetSent:vector(packetBytes) ETV
attr interpolationmode none
attr source packetSent
attr title "packets sent, vector(packetBytes)"
vector 327 CNPNet.node[40].udp packetSent:vector(packetBytes) ETV
attr interpolationmode none
attr source packetSent
attr title "packets sent, vector(packetBytes)"
vector 328 CNPNet.node[40].veinsmobility speed ETV
vector 329 CNPNet.node[40].veinsmobility acceleration ETV
vector 330 CNPNet.node[40].veinsmobility co2emission ETV
vector 331 CNPNet.node[41].veinsmobility posx ETV
vector 332 CNPNet.node[41].veinsmobility posy ETV
vector 333 CNPNet.node[41].app[0] packetSent:vector(packetBytes) ETV
attr interpolationmode none
attr source packetSent
attr title "packets sent, vector(packetBytes)"
vector 334 CNPNet.node[41].udp packetSent:vector(packetBytes) ETV
attr interpolationmode none
attr source packetSent
attr title "packets sent, vector(packetBytes)"
vector 335 CNPNet.node[41].veinsmobility speed ETV
vector 336 CNPNet.node[41].veinsmobility acceleration ETV
vector 337 CNPNet.node[41].veinsmobility co2emission ETV
vector 338 CNPNet.node[42].veinsmobility posx ETV
vector 339 CNPNet.node[42].veinsmobility posy ETV
vector 340 CNPNet.node[42].app[0] packetSent:vector(packetBytes) ETV
attr interpolationmode none
attr source packetSent
attr title "packets sent, vector(packetBytes)"
vector 341 CNPNet.node[42].udp packetSent:vector(packetBytes) ETV
attr interpolationmode none
attr source packetSent
attr title "packets sent, vector(packetBytes)"
vector 342 CNPNet.node[42].veinsmobility speed ETV
vector 343 CNPNet.node[42].veinsmobility acceleration ETV
vector 344 CNPNet.node[42].veinsmobility co2emission ETV
vector 345 CNPNet.node[43].veinsmobility posx ETV
vector 346 CNPNet.node[43].veinsmobility posy ETV
vector 347 CNPNet.node[43].app[0] packetSent:vector(packetBytes) ETV
attr interpolationmode none
attr source packetSent
attr title "packets sent, vector(packetBytes)"
vector 348 CNPNet.node[43].udp packetSent:vector(packetBytes) ETV
attr interpolationmode none
attr source packetSent
attr title "packets sent, vector(packetBytes)"
vector 349 CNPNet.node[43].veinsmobility speed ETV
vector 350 CNPNet.node[43].veinsmobility acceleration ETV
vector 351 CNPNet.node[43].veinsmobility co2emission ETV
0	0	0	0
1	0	0	0
1	1996	7.744067511521	1
1	1996	7.744067511521	0
1	2298	8.744067511521	1
1	2298	8.744067511521	0
1	2740	9.744067511521	1
1	2740	9.744067511521	0
1	5562	14.73517284845	1
1	5562	14.73517284845	0
1	6028	15.73517284845	1
1	6028	15.73517284845	0
1	6868	16.73517284845	1
1	6868	16.73517284845	0
1	10476	21.148671082919	1
1	10476	21.148671082919	0
1	11720	22.148671082919	1
1	11720	22.148671082919	0
1	12752	23.148671082919	1
1	12752	23.148671082919	0
1	23268	31.1277475534	1
1	23268	31.1277475534	0
1	25026	32.1277475534	1
1	25026	32.1277475534	0
1	26231	33.1277475534	1
1	26231	33.1277475534	0
1	38906	39.544101043138	1
1	38906	39.544101043138	0
1	40667	40.544101043138	1
1	40667	40.544101043138	0
1	43448	41.544101043138	1
1	43448	41.544101043138	0
1	63237	48.494498186046	1
1	63237	48.494498186046	0
1	65389	49.494498186046	1
1	65389	49.494498186046	0
1	69348	50.494498186046	1
1	69348	50.494498186046	0
1	84217	54.369892193936	1
1	84217	54.369892193936	0
1	87246	55.369892193936	1
1	87246	55.369892193936	0
1	90828	56.369892193936	1
1	90828	56.369892193936	0
1	123414	64.304965367774	1
1	123414	64.304965367774	0
1	127953	65.304965367774	1
1	127953	65.304965367774	0
1	132894	66.304965367774	1
1	132894	66.304965367774	0
1	152295	70.600418596296	1
1	152295	70.600418596296	0
1	157972	71.600418596296	1
1	157972	71.600418596296	0
1	162351	72.600418596296	1
1	162351	72.600418596296	0
2	0	0	0
3	0	0	0
4	0	0	0
5	0	0	0
5	2060	7.964223081945	1
5	2060	7.964223081945	0
5	2372	8.964223081945	1
5	2372	8.964223081945	0
5	2904	9.964223081945	1
5	2904	9.964223081945	0
5	4863	13.895188109018	1
5	4863	13.895188109018	0
5	5626	14.895188109018	1
5	5626	14.895188109018	0
5	6099	15.895188109018	1
5	6099	15.895188109018	0
5	12188	22.588601399912	1
5	12188	22.588601399912	0
5	13522	23.588601399912	1
5	13522	23.588601399912	0
5	15016	24.588601399912	1
5	15016	24.588601399912	0
5	18311	27.611875567818	1
5	18311	27.611875567818	0
5	19695	28.611875567818	1
5	19695	28.611875567818	0
5	20992	29.611875567818	1
5	20992	29.611875567818	0
5	33772	37.32577263494	1
5	33772	37.32577263494	0
5	36098	38.32577263494	1
5	36098	38.32577263494	0
5	38384	39.32577263494	1
5	38384	39.32577263494	0
5	48414	43.716929550282	1
5	48414	43.716929550282	0
5	51535	44.716929550282	1
5	51535	44.716929550282	0
5	54087	45.716929550282	1
5	54087	45.716929550282	0
5	64128	49.074742189841	1
5	64128	49.074742189841	0
5	67238	50.074742189841	1
5	67238	50.074742189841	0
5	71374	51.074742189841	1
5	71374	51.074742189841	0
5	101710	59.027579545509	1
5	101710	59.027579545509	0
5	106488	60.027579545509	1
5	106488	60.027579545509	0
5	110469	61.027579545509	1
5	110469	61.027579545509	0
5	138821	67.733776699752	1
5	138821	67.733776699752	0
5	143356	68.733776699752	1
5	143356	68.733776699752	0
5	147948	69.733776699752	1
5	147948	69.733776699752	0
6	0	0	0
7	0	0	0
8	0	0	0
9	0	0	0
10	0	0	0
11	0	0	0
11	158	1.005160603747	1
11	158	1.005160603747	0
11	499	2.928937013402	1
11	499	2.928937013402	0
11	982	5.305041065236	1
11	982	5.305041065236	0
11	1254	5.805292032869	1
11	1254	5.805292032869	0
11	1734	7.342284719609	1
11	1734	7.342284719609	0
11	2727	9.742040114214	1
11	2727	9.742040114214	0
11	3681	11.805131725098	1
11	3681	11.805131725098	0
11	4238	12.513071635986	1
11	4238	12.513071635986	0
11	5223	14.205200592036	1
11	5223	14.205200592036	0
11	6402	16.015640085448	1
11	6402	16.015640085448	0
11	7543	17.40539645002	1
11	7543	17.40539645002	0
11	9098	19.317576670829	1
11	9098	19.317576670829	0
11	10812	21.249121929655	1
11	10812	21.249121929655	0
11	13110	23.221333042299	1
11	13110	23.221333042299	0
11	14799	24.534923182477	1
11	14799	24.534923182477	0
11	16430	26.005459717044	1
11	16430	26.005459717044	0
11	19215	28.305239714563	1
11	19215	28.305239714563	0
11	21690	30.0050956626	1
11	21690	30.0050956626	0
11	24129	31.412576707598	1
11	24129	31.412576707598	0
11	26798	33.305337113872	1
11	26798	33.305337113872	0
11	28679	34.305085156749	1
11	28679	34.305085156749	0
11	32507	36.405674215082	1
11	32507	36.405674215082	0
11	35222	38.005372482252	1
11	35222	38.005372482252	0
11	37860	39.105093742786	1
11	37860	39.105093742786	0
11	42263	41.005218789489	1
11	42263	41.005218789489	0
11	45988	42.512492124403	1
11	45988	42.512492124403	0
11	49849	44.005311460734	1
11	49849	44.005311460734	0
11	54965	46.044378031255	1
11	54965	46.044378031255	0
11	62075	48.305050293445	1
11	62075	48.305050293445	0
11	67839	50.105137635009	1
11	67839	50.105137635009	0
11	74039	51.949099231321	1
11	74039	51.949099231321	0
11	75663	52.205311736844	1
11	75663	52.205311736844	0
11	83313	54.21679918866	1
11	83313	54.21679918866	0
11	91617	56.504959675112	1
11	91617	56.504959675112	0
11	99883	58.605124859286	1
11	99883	58.605124859286	0
11	103073	59.312448789214	1
11	103073	59.312448789214	0
11	108621	60.63751043959	1
11	108621	60.63751043959	0
11	117051	62.705189117584	1
11	117051	62.705189117584	0
11	125660	64.805270845688	1
11	125660	64.805270845688	0
11	130765	65.805209520485	1
11	130765	65.805209520485	0
11	141142	68.239809431338	1
11	141142	68.239809431338	0
11	149082	70.005410850876	1
11	149082	70.005410850876	0
11	153864	70.924521206423	1
11	153864	70.924521206423	0
11	163536	72.922416626318	1
11	163536	72.922416626318	0
12	0	0	0
13	0	0	0
14	0	0	0
15	0	0	0
16	0	0	0
17	0	0	0
18	0	0	0
19	0	0	0
20	6	0.1	20.05
20	15	0.2	20.05
20	26	0.3	20.05
20	35	0.4	20.05
20	44	0.5	20.05
20	54	0.6	20.05
20	63	0.7	20.05
20	72	0.8	20.05
20	81	0.9	20.05
20	93	1	20.05
20	214	1.1	20.05
20	223	1.2	20.05
20	232	1.3	20.05
20	241	1.4	20.05
20	250	1.5	20.05
20	259	1.6	20.05
20	268	1.7	20.05
20	278	1.8	20.05
20	289	1.9	20.05
20	313	2	20.05
20	324	2.1	20.05
20	336	2.2	20.05
20	347	2.3	20.05
20	358	2.4	20.05
20	369	2.5	20.05
20	380	2.6	20.05
20	391	2.7	20.05
20	402	2.8	20.05
20	413	2.9	20.05
20	566	3	20.05
20	577	3.1	20.05
20	588	3.2	20.05
20	599	3.3	20.05
20	610	3.4	20.05
20	622	3.5	20.05
20	635	3.6	20.05
20	648	3.7	20.05
20	661	3.8	20.05
20	674	3.9	20.05
20	687	4	20.05
20	700	4.1	20.05
20	713	4.2	20.05
20	726	4.3	20.05
20	740	4.4	20.05
20	753	4.5	20.05
20	766	4.6	20.05
20	779	4.7	20.05
20	792	4.8	20.05
20	805	4.9	20.05
20	818	5	20.05
20	831	5.1	20.05
20	845	5.2	20.05
20	863	5.3	20.05
20	1071	5.4	20.05
20	1086	5.5	20.05
20	1102	5.6	20.05
20	1117	5.7	20.05
20	1135	5.8	20.05
20	1343	5.9	20.05
20	1358	6	20.05
20	1373	6.1	20.05
20	1388	6.2	20.05
20	1403	6.3	20.05
20	1418	6.4	20.05
20	1433	6.5	20.05
20	1448	6.6	20.05
20	1463	6.7	20.05
20	1484	6.8	20.05
20	1505	6.9	20.05
20	1526	7	20.05
20	1547	7.1	20.05
20	1569	7.2	20.05
20	1590	7.3	20.05
20	1758	7.4	20.05
20	1936	7.5	20.05
20	1956	7.6	20.05
20	1976	7.7	20.05
20	2012	7.8	20.05
20	2032	7.9	20.05
20	2068	8	20.05
20	2088	8.1	20.05
20	2108	8.2	20.05
20	2128	8.3	20.05
20	2148	8.4	20.05
20	2174	8.5	20.05
20	2205	8.6	20.05
20	2277	8.7	20.05
20	2315	8.8	20.05
20	2342	8.9	20.05
20	2380	9	20.05
20	2406	9.1	20.05
20	2432	9.2	20.05
20	2458	9.3	20.05
20	2484	9.4	20.05
20	2510	9.5	20.05
20	2536	9.6	20.05
20	2562	9.7	20.05
20	2850	9.8	20.05
20	2875	9.9	20.05
20	2912	10	20.05
20	2937	10.1	20.05
20	2968	10.2	20.05
20	2999	10.3	20.05
20	3030	10.4	20.05
20	3061	10.5	20.05
20	3092	10.6	20.05
20	3123	10.7	20.05
20	3155	10.8	20.05
20	3186	10.9	20.05
20	3219	11	20.05
20	3250	11.1	20.05
20	3281	11.2	20.05
20	3312	11.3	20.05
20	3343	11.4	20.05
20	3374	11.5	20.05
20	3405	11.6	20.05
20	3436	11.7	20.05
20	3476	11.8	20.05
20	3814	11.9	20.05
20	3850	12	20.05
20	3886	12.1	20.05
20	3922	12.2	20.05
20	3959	12.3	20.05
20	3995	12.4	20.05
20	4031	12.5	20.05
20	4371	12.6	20.05
20	4406	12.7	20.05
20	4441	12.8	20.05
20	4476	12.9	20.05
20	4511	13	20.05
20	4546	13.1	20.05
20	4581	13.2	20.05
20	4616	13.3	20.05
20	4651	13.4	20.05
20	4692	13.5	20.05
20	4733	13.6	20.05
20	4774	13.7	20.05
20	4815	13.8	20.05
20	4871	13.9	20.05
20	4913	14	20.05
20	4954	14.1	20.05
20	4995	14.2	20.05
20	5367	14.3	20.05
20	5407	14.4	20.05
20	5447	14.5	20.05
20	5487	14.6	20.05
20	5527	14.7	20.05
20	5582	14.8	20.05
20	5634	14.9	20.05
20	5674	15	20.05
20	5714	15.1	20.05
20	5760	15.2	20.05
20	5806	15.3	20.05
20	5852	15.4	20.05
20	5898	15.5	20.05
20	5945	15.6	20.05
20	5991	15.7	20.05
20	6049	15.8	20.05
20	6107	15.9	20.05
20	6153	16	20.05
20	6557	16.1	20.05
20	6602	16.2	20.05
20	6647	16.3	20.05
20	6692	16.4	20.05
20	6737	16.5	20.05
20	6782	16.6	20.05
20	6827	16.7	20.05
20	6890	16.8	20.05
20	6942	16.9	20.05
20	6993	17	20.05
20	7048	17.1	20.05
20	7170	17.2	20.05
20	7221	17.3	20.05
20	7276	17.4	20.05
20	7709	17.5	20.05
20	7759	17.6	20.05
20	7809	17.7	20.05
20	7860	17.8	20.05
20	7910	17.9	20.05
20	7960	18	20.05
20	8152	18.1	20.05
20	8202	18.2	20.05
20	8252	18.3	20.05
20	8302	18.4	20.05
20	8358	18.5	20.05
20	8414	18.6	20.05
20	8470	18.7	20.05
20	8526	18.8	20.05
20	8582	18.9	20.05
20	8638	19	20.05
20	8695	19.1	20.05
20	8751	19.2	20.05
20	8807	19.3	20.05
20	9275	19.4	20.05
20	9330	19.5	20.05
20	9385	19.6	20.05
20	9440	19.7	20.05
20	9495	19.8	20.05
20	9550	19.9	20.05
20	9757	20	20.05
20	9813	20.1	20.05
20	9874	20.2	20.05
20	9935	20.3	20.05
20	9996	20.4	20.05
20	10057	20.5	20.05
20	10118	20.6	20.05
20	10180	20.7	20.05
20	10241	20.8	20.05
20	10302	20.9	20.05
20	10363	21	20.05
20	10424	21.1	20.05
20	10500	21.2	20.05
20	10844	21.3	20.05
20	11222	21.4	20.05
20	11282	21.5	20.05
20	11342	21.6	20.05
20	11403	21.7	20.05
20	11469	21.8	20.05
20	11535	21.9	20.05
20	11601	22	20.05
20	11667	22.1	20.05
20	11745	22.2	20.05
20	11811	22.3	20.05
20	12049	22.4	20.05
20	12115	22.5	20.05
20	12197	22.6	20.05
20	12263	22.7	20.05
20	12329	22.8	20.05
20	12567	22.9	20.05
20	12633	23	20.05
20	12699	23.1	20.05
20	12777	23.2	20.05
20	13309	23.3	20.05
20	13376	23.4	20.05
20	13447	23.5	20.05
20	13530	23.6	20.05
20	13601	23.7	20.05
20	13672	23.8	20.05
20	13743	23.9	20.05
20	13814	24	20.05
20	13885	24.1	20.05
20	13958	24.2	20.05
20	14029	24.3	20.05
20	14195	24.4	20.05
20	14448	24.5	20.05
20	15024	24.6	20.05
20	15094	24.7	20.05
20	15164	24.8	20.05
20	15234	24.9	20.05
20	15304	25	20.05
20	15375	25.1	20.05
20	15451	25.2	20.05
20	15527	25.3	20.05
20	15603	25.4	20.05
20	15679	25.5	20.05
20	15757	25.6	20.05
20	15833	25.7	20.05
20	15909	25.8	20.05
20	15985	25.9	20.05
20	16064	26	20.05
20	16657	26.1	20.05
20	16732	26.2	20.05
20	16807	26.3	20.05
20	16882	26.4	20.05
20	16957	26.5	20.05
20	17032	26.6	20.05
20	17108	26.7	20.05
20	17291	26.8	20.05
20	17473	26.9	20.05
20	17554	27	20.05
20	17635	27.1	20.05
20	17716	27.2	20.05
20	17797	27.3	20.05
20	17878	27.4	20.05
20	18162	27.5	20.05
20	18243	27.6	20.05
20	18339	27.7	20.05
20	18420	27.8	20.05
20	18501	27.9	20.05
20	18582	28	20.05
20	18663	28.1	20.05
20	18744	28.2	20.05
20	18828	28.3	20.05
20	19454	28.4	20.05
20	19540	28.5	20.05
20	19626	28.6	20.05
20	19724	28.7	20.05
20	19810	28.8	20.05
20	20108	28.9	20.05
20	20194	29	20.05
20	20281	29.1	20.05
20	20367	29.2	20.05
20	20453	29.3	20.05
20	20539	29.4	20.05
20	20625	29.5	20.05
20	20923	29.6	20.05
20	21021	29.7	20.05
20	21107	29.8	20.05
20	21193	29.9	20.05
20	21282	30	20.05
20	21940	30.1	20.05
20	22031	30.2	20.05
20	22122	30.3	20.05
20	22213	30.4	20.05
20	22529	30.5	20.05
20	22620	30.6	20.05
20	22712	30.7	20.05
20	22807	30.8	20.05
20	23009	30.9	20.05
20	23101	31	20.05
20	23192	31.1	20.05
20	23298	31.2	20.05
20	23611	31.3	20.05
20	23702	31.4	20.05
20	24384	31.5	20.05
20	24474	31.6	20.05
20	24565	31.7	20.05
20	24661	31.8	20.05
20	24757	31.9	20.05
20	24853	32	20.05
20	24949	32.1	20.05
20	25057	32.2	20.05
20	25153	32.3	20.05
20	25249	32.4	20.05
20	25345	32.5	20.05
20	25442	32.6	20.05
20	25538	32.7	20.05
20	25634	32.8	20.05
20	25730	32.9	20.05
20	25826	33	20.05
20	26154	33.1	20.05
20	26262	33.2	20.05
20	26361	33.3	20.05
20	27063	33.4	20.05
20	27411	33.5	20.05
20	27512	33.6	20.05
20	27613	33.7	20.05
20	27714	33.8	20.05
20	27816	33.9	20.05
20	27917	34	20.05
20	28018	34.1	20.05
20	28120	34.2	20.05
20	28224	34.3	20.05
20	28957	34.4	20.05
20	29299	34.5	20.05
20	29399	34.6	20.05
20	29499	34.7	20.05
20	29599	34.8	20.05
20	29699	34.9	20.05
20	29799	35	20.05
20	29900	35.1	20.05
20	30006	35.2	20.05
20	30112	35.3	20.05
20	30218	35.4	20.05
20	30324	35.5	20.05
20	30430	35.6	20.05
20	30536	35.7	20.05
20	30642	35.8	20.05
20	30748	35.9	20.05
20	30855	36	20.05
20	31207	36.1	20.05
20	31313	36.2	20.05
20	31419	36.3	20.05
20	31780	36.4	20.05
20	32802	36.5	20.05
20	32907	36.6	20.05
20	33013	36.7	20.05
20	33124	36.8	20.05
20	33235	36.9	20.05
20	33346	37	20.05
20	33457	37.1	20.05
20	33568	37.2	20.05
20	33679	37.3	20.05
20	33806	37.4	20.05
20	33917	37.5	20.05
20	34028	37.6	20.05
20	34139	37.7	20.05
20	34250	37.8	20.05
20	34361	37.9	20.05
20	34731	38	20.05
20	35528	38.1	20.05
20	35638	38.2	20.05
20	35748	38.3	20.05
20	36133	38.4	20.05
20	36249	38.5	20.05
20	36365	38.6	20.05
20	36481	38.7	20.05
20	36737	38.8	20.05
20	36854	38.9	20.05
20	36970	39	20.05
20	37348	39.1	20.05
20	38177	39.2	20.05
20	38292	39.3	20.05
20	38419	39.4	20.05
20	38811	39.5	20.05
20	38941	39.6	20.05
20	39056	39.7	20.05
20	39171	39.8	20.05
20	39286	39.9	20.05
20	39401	40	20.05
20	39517	40.1	20.05
20	39638	40.2	20.05
20	40041	40.3	20.05
20	40449	40.4	20.05
20	40570	40.5	20.05
20	40703	40.6	20.05
20	40824	40.7	20.05
20	40946	40.8	20.05
20	41353	40.9	20.05
20	41746	41	20.05
20	42587	41.1	20.05
20	42707	41.2	20.05
20	42827	41.3	20.05
20	43232	41.4	20.05
20	43352	41.5	20.05
20	43766	41.6	20.05
20	43887	41.7	20.05
20	44013	41.8	20.05
20	44139	41.9	20.05
20	44265	42	20.05
20	44664	42.1	20.05
20	44790	42.2	20.05
20	44916	42.3	20.05
20	45044	42.4	20.05
20	45458	42.5	20.05
20	46325	42.6	20.05
20	46450	42.7	20.05
20	46575	42.8	20.05
20	46700	42.9	20.05
20	46825	43	20.05
20	47242	43.1	20.05
20	47367	43.2	20.05
20	47492	43.3	20.05
20	47913	43.4	20.05
20	48044	43.5	20.05
20	48175	43.6	20.05
20	48306	43.7	20.05
20	48452	43.8	20.05
20	48889	43.9	20.05
20	49303	44	20.05
20	50191	44.1	20.05
20	50321	44.2	20.05
20	50451	44.3	20.05
20	51041	44.4	20.05
20	51171	44.5	20.05
20	51301	44.6	20.05
20	51431	44.7	20.05
20	51722	44.8	20.05
20	52003	44.9	20.05
20	52133	45	20.05
20	52547	45.1	20.05
20	52683	45.2	20.05
20	52819	45.3	20.05
20	53267	45.4	20.05
20	53705	45.5	20.05
20	53842	45.6	20.05
20	53978	45.7	20.05
20	54126	45.8	20.05
20	54262	45.9	20.05
20	54398	46	20.05
20	55030	46.1	20.05
20	55747	46.2	20.05
20	55882	46.3	20.05
20	56332	46.4	20.05
20	56467	46.5	20.05
20	56602	46.6	20.05
20	56738	46.7	20.05
20	56880	46.8	20.05
20	57659	46.9	20.05
20	58100	47	20.05
20	58563	47.1	20.05
20	58704	47.2	20.05
20	58845	47.3	20.05
20	59313	47.4	20.05
20	59454	47.5	20.05
20	59911	47.6	20.05
20	60053	47.7	20.05
20	60346	47.8	20.05
20	60648	47.9	20.05
20	60789	48	20.05
20	61224	48.1	20.05
20	61365	48.2	20.05
20	61509	48.3	20.05
20	62439	48.4	20.05
20	63245	48.5	20.05
20	63391	48.6	20.05
20	63537	48.7	20.05
20	63683	48.8	20.05
20	63829	48.9	20.05
20	63975	49	20.05
20	64137	49.1	20.05
20	64283	49.2	20.05
20	64758	49.3	20.05
20	65239	49.4	20.05
20	65397	49.5	20.05
20	65543	49.6	20.05
20	65689	49.7	20.05
20	65835	49.8	20.05
20	66635	49.9	20.05
20	67085	50	20.05
20	67247	50.1	20.05
20	68214	50.2	20.05
20	68365	50.3	20.05
20	69193	50.4	20.05
20	69356	50.5	20.05
20	69833	50.6	20.05
20	69984	50.7	20.05
20	70291	50.8	20.05
20	70610	50.9	20.05
20	70761	51	20.05
20	71382	51.1	20.05
20	71533	51.2	20.05
20	71684	51.3	20.05
20	72168	51.4	20.05
20	72640	51.5	20.05
20	72961	51.6	20.05
20	73113	51.7	20.05
20	73270	51.8	20.05
20	73427	51.9	20.05
20	74112	52	20.05
20	74895	52.1	20.05
20	75055	52.2	20.05
20	76382	52.3	20.05
20	76880	52.4	20.05
20	77375	52.5	20.05
20	77530	52.6	20.05
20	77685	52.7	20.05
20	77840	52.8	20.05
20	78665	52.9	20.05
20	78949	53	20.05
20	79105	53.1	20.05
20	79260	53.2	20.05
20	79415	53.3	20.05
20	79922	53.4	20.05
20	80433	53.5	20.05
20	80931	53.6	20.05
20	81092	53.7	20.05
20	81413	53.8	20.05
20	81749	53.9	20.05
20	81910	54	20.05
20	82539	54.1	20.05
20	82700	54.2	20.05
20	83700	54.3	20.05
20	84225	54.4	20.05
20	84719	54.5	20.05
20	84879	54.6	20.05
20	85039	54.7	20.05
20	85199	54.8	20.05
20	85359	54.9	20.05
20	85520	55	20.05
20	86031	55.1	20.05
20	86197	55.2	20.05
20	86713	55.3	20.05
20	87254	55.4	20.05
20	87773	55.5	20.05
20	87940	55.6	20.05
20	88106	55.7	20.05
20	88272	55.8	20.05
20	89145	55.9	20.05
20	89440	56	20.05
20	89606	56.1	20.05
20	90129	56.2	20.05
20	90296	56.3	20.05
20	90836	56.4	20.05
20	91005	56.5	20.05
20	92352	56.6	20.05
20	92518	56.7	20.05
20	92856	56.8	20.05
20	93212	56.9	20.05
20	93383	57	20.05
20	93914	57.1	20.05
20	94085	57.2	20.05
20	94256	57.3	20.05
20	94792	57.4	20.05
20	95311	57.5	20.05
20	95482	57.6	20.05
20	95654	57.7	20.05
20	95825	57.8	20.05
20	96001	57.9	20.05
20	96355	58	20.05
20	96887	58.1	20.05
20	97058	58.2	20.05
20	97959	58.3	20.05
20	98504	58.4	20.05
20	99048	58.5	20.05
20	99228	58.6	20.05
20	100296	58.7	20.05
20	100472	58.8	20.05
20	101390	58.9	20.05
20	101566	59	20.05
20	101757	59.1	20.05
20	101933	59.2	20.05
20	102112	59.3	20.05
20	103483	59.4	20.05
20	103659	59.5	20.05
20	104934	59.6	20.05
20	105109	59.7	20.05
20	105450	59.8	20.05
20	105812	59.9	20.05
20	105987	60	20.05
20	106536	60.1	20.05
20	106717	60.2	20.05
20	106898	60.3	20.05
20	107450	60.4	20.05
20	107785	60.5	20.05
20	107967	60.6	20.05
20	109035	60.7	20.05
20	109215	60.8	20.05
20	109395	60.9	20.05
20	109575	61	20.05
20	110517	61.1	20.05
20	110697	61.2	20.05
20	111619	61.3	20.05
20	112174	61.4	20.05
20	112719	61.5	20.05
20	112899	61.6	20.05
20	113080	61.7	20.05
20	113267	61.8	20.05
20	113997	61.9	20.05
20	114183	62	20.05
20	114370	62.1	20.05
20	114556	62.2	20.05
20	114742	62.3	20.05
20	115307	62.4	20.05
20	115494	62.5	20.05
20	116220	62.6	20.05
20	116409	62.7	20.05
20	117617	62.8	20.05
20	117802	62.9	20.05
20	117987	63	20.05
20	118541	63.1	20.05
20	119096	63.2	20.05
20	119281	63.3	20.05
20	120230	63.4	20.05
20	120573	63.5	20.05
20	120764	63.6	20.05
20	120955	63.7	20.05
20	121146	63.8	20.05
20	121338	63.9	20.05
20	121529	64	20.05
20	122112	64.1	20.05
20	122303	64.2	20.05
20	123258	64.3	20.05
20	123853	64.4	20.05
20	124423	64.5	20.05
20	124615	64.6	20.05
20	124806	64.7	20.05
20	125000	64.8	20.05
20	126625	64.9	20.05
20	126815	65	20.05
20	127404	65.1	20.05
20	127600	65.2	20.05
20	127796	65.3	20.05
20	128591	65.4	20.05
20	128788	65.5	20.05
20	129538	65.6	20.05
20	129734	65.7	20.05
20	130088	65.8	20.05
20	131187	65.9	20.05
20	131382	66	20.05
20	131957	66.1	20.05
20	132542	66.2	20.05
20	132738	66.3	20.05
20	133729	66.4	20.05
20	134320	66.5	20.05
20	134515	66.6	20.05
20	134711	66.7	20.05
20	134912	66.8	20.05
20	135113	66.9	20.05
20	135314	67	20.05
20	135914	67.1	20.05
20	136503	67.2	20.05
20	137274	67.3	20.05
20	137873	67.4	20.05
20	138254	67.5	20.05
20	138456	67.6	20.05
20	138657	67.7	20.05
20	138873	67.8	20.05
20	139465	67.9	20.05
20	139666	68	20.05
20	140270	68.1	20.05
20	140471	68.2	20.05
20	141568	68.3	20.05
20	142172	68.4	20.05
20	142379	68.5	20.05
20	142985	68.6	20.05
20	143191	68.7	20.05
20	143409	68.8	20.05
20	143615	68.9	20.05
20	143821	69	20.05
20	144594	69.1	20.05
20	145203	69.2	20.05
20	145793	69.3	20.05
20	146761	69.4	20.05
20	147371	69.5	20.05
20	147577	69.6	20.05
20	147783	69.7	20.05
20	148001	69.8	20.05
20	148207	69.9	20.05
20	148416	70	20.05
20	149907	70.1	20.05
20	150118	70.2	20.05
20	150905	70.3	20.05
20	151521	70.4	20.05
20	151911	70.5	20.05
20	152123	70.6	20.05
20	152349	70.7	20.05
20	152561	70.8	20.05
20	153177	70.9	20.05
20	154297	71	20.05
20	155120	71.1	20.05
20	155330	71.2	20.05
20	155929	71.3	20.05
20	156553	71.4	20.05
20	157187	71.5	20.05
20	157804	71.6	20.05
20	158027	71.7	20.05
20	158243	71.8	20.05
20	158459	71.9	20.05
20	158675	72	20.05
20	159481	72.1	20.05
20	160121	72.2	20.05
20	160337	72.3	20.05
20	161332	72.4	20.05
20	161962	72.5	20.05
20	162178	72.6	20.05
20	162406	72.7	20.05
20	162622	72.8	20.05
20	162838	72.9	20.05
20	163977	73	20.05
21	6	0.1	39.95
21	15	0.2	39.95
21	26	0.3	39.998627966244
21	35	0.4	40.094332379548
21	44	0.5	40.23482648051
21	54	0.6	40.417279199278
21	63	0.7	40.642726218834
21	72	0.8	40.906357310195
21	81	0.9	41.211443786276
21	93	1	41.55148788067
21	214	1.1	41.933269772487
21	223	1.2	42.351589488679
21	232	1.3	42.804784957437
21	241	1.4	43.298370883489
21	250	1.5	43.831017129293
21	259	1.6	44.406225009965
21	268	1.7	45.009138565593
21	278	1.8	45.660634296828
21	289	1.9	46.338038458961
21	313	2	47.055856583061
21	324	2.1	47.803881581326
21	336	2.2	48.588684206552
21	347	2.3	49.409285717685
21	358	2.4	50.256747312987
21	369	2.5	51.152433006821
21	380	2.6	52.095940468231
21	391	2.7	53.088942469662
21	402	2.8	54.111128975023
21	413	2.9	55.163861561462
21	566	3	56.244843844269
21	577	3.1	57.351360668504
21	588	3.2	58.487898528643
21	599	3.3	59.662899404712
21	610	3.4	60.868387051389
21	622	3.5	62.120917837473
21	635	3.6	63.407450598132
21	648	3.7	64.730549028085
21	661	3.8	66.090601249833
21	674	3.9	67.468761239265
21	687	4	68.839405397102
21	700	4.1	70.223991638185
21	713	4.2	71.613521893234
21	726	4.3	72.999780021639
21	740	4.4	74.374356671673
21	753	4.5	75.741791709889
21	766	4.6	77.122804012337
21	779	4.7	78.490245297882
21	792	4.8	79.878739661219
21	805	4.9	81.252411160414
21	818	5	82.637151596373
21	831	5.1	84.008384442901
21	845	5.2	85.389291673566
21	863	5.3	86.778331037928
21	1071	5.4	88.144357306196
21	1086	5.5	89.518480834269
21	1102	5.6	90.893934575964
21	1117	5.7	92.272067138336
21	1135	5.8	93.653616947898
21	1343	5.9	95.035686904279
21	1358	6	96.401947627994
21	1373	6.1	97.791608336948
21	1388	6.2	99.164766846171
21	1403	6.3	100.53281200946
21	1418	6.4	101.92141914213
21	1433	6.5	103.31091945033
21	1448	6.6	104.67642978206
21	1463	6.7	106.05440744366
21	1484	6.8	107.42239554633
21	1505	6.9	108.806974993
21	1526	7	110.19034025572
21	1547	7.1	111.55731131542
21	1569	7.2	112.93934709155
21	1590	7.3	114.31316773808
21	1758	7.4	115.698587954
21	1936	7.5	117.08446444248
21	1956	7.6	118.457519029
21	1976	7.7	119.84030711819
21	2012	7.8	121.21590318479
21	2032	7.9	122.58993015779
21	2068	8	123.96875202333
21	2088	8.1	125.35584697558
21	2108	8.2	126.73593433211
21	2128	8.3	128.1181038738
21	2148	8.4	129.48997251677
21	2174	8.5	130.87420919119
21	2205	8.6	132.24904936077
21	2277	8.7	133.62254502231
21	2315	8.8	135.00182580484
21	2342	8.9	136.37757668205
21	2380	9	137.75124666167
21	2406	9.1	139.11883299671
21	2432	9.2	140.48653491276
21	2458	9.3	141.87402924059
21	2484	9.4	143.23905806552
21	2510	9.5	144.62499574224
21	2536	9.6	145.99379553655
21	2562	9.7	147.37361595411
21	2850	9.8	148.7522773871
21	2875	9.9	150.1178893493
21	2912	10	151.49888989783
21	2937	10.1	152.87586398275
21	2968	10.2	154.2654009379
21	2999	10.3	155.64676714593
21	3030	10.4	157.01717603973
21	3061	10.5	158.40122871936
21	3092	10.6	159.7696216833
21	3123	10.7	161.14966615661
21	3155	10.8	162.52542681832
21	3186	10.9	163.90906790625
21	3219	11	165.27704279228
21	3250	11.1	166.66642582406
21	3281	11.2	168.03949878465
21	3312	11.3	169.42407636013
21	3343	11.4	170.80834587705
21	3374	11.5	172.18363794912
21	3405	11.6	173.56584144361
21	3436	11.7	174.93202165215
21	3476	11.8	176.31628560642
21	3814	11.9	177.69333058864
21	3850	12	179.07397633918
21	3886	12.1	180.44237994914
21	3922	12.2	181.81445845715
21	3959	12.3	183.20083726308
21	3995	12.4	184.57170413177
21	4031	12.5	185.94789931999
21	4371	12.6	187.33187860056
21	4406	12.7	188.705130687
21	4441	12.8	190.09353180536
21	4476	12.9	191.47507783145
21	4511	13	192.84154338883
21	4546	13.1	194.22421788173
21	4581	13.2	195.60553704394
21	4616	13.3	196.98310225975
21	4651	13.4	198.35254931637
21	4692	13.5	199.74010320422
21	4733	13.6	201.10743931677
21	4774	13.7	202.47805882221
21	4815	13.8	203.86777313584
21	4871	13.9	205.24083784022
21	4913	14	206.60932406094
21	4954	14.1	207.98741213084
21	4995	14.2	209.36002149468
21	5367	14.3	210.74786207017
21	5407	14.4	212.13137650603
21	5447	14.5	213.51803987576
21	5487	14.6	214.90611596466
21	5527	14.7	216.29176316594
21	5582	14.8	217.66835872846
21	5634	14.9	219.05468338117
21	5674	15	220.43326059563
21	5714	15.1	221.82092410926
21	5760	15.2	223.1920046431
21	5806	15.3	224.57429748902
21	5852	15.4	225.96186077186
21	5898	15.5	227.34973574512
21	5945	15.6	228.72855128763
21	5991	15.7	230.10745432064
21	6049	15.8	231.48044756674
21	6107	15.9	232.86828425449
21	6153	16	234.24203845514
21	6557	16.1	235.6226327906
21	6602	16.2	237.01149129955
21	6647	16.3	238.39228873949
21	6692	16.4	239.77277050837
21	6737	16.5	241.15207464879
21	6782	16.6	242.53299561749
21	6827	16.7	243.9165647804
21	6890	16.8	245.30052613821
21	6942	16.9	246.68089520262
21	6993	17	248.06153779805
21	7048	17.1	249.42938874141
21	7170	17.2	250.79770650627
21	7221	17.3	252.17000856973
21	7276	17.4	253.55672633647
21	7709	17.5	254.92223700516
21	7759	17.6	256.30544568591
21	7809	17.7	257.68850134408
21	7860	17.8	259.05694338039
21	7910	17.9	260.43417765782
21	7960	18	261.81563520498
21	8152	18.1	263.1897587851
21	8202	18.2	264.5775214215
21	8252	18.3	265.94329981896
21	8302	18.4	267.30957829335
21	8358	18.5	268.67670852676
21	8414	18.6	270.04693752267
21	8470	18.7	271.43124353518
21	8526	18.8	272.79672903184
21	8582	18.9	274.16598159759
21	8638	19	275.53217803011
21	8695	19.1	276.91817226831
21	8751	19.2	278.30718188024
21	8807	19.3	279.68036732257
21	9275	19.4	281.06091119315
21	9330	19.5	282.43572995872
21	9385	19.6	283.81431696142
21	9440	19.7	285.18954128899
21	9495	19.8	286.56360172159
21	9550	19.9	287.94521426721
21	9757	20	289.31588717837
21	9813	20.1	290.68468341878
21	9874	20.2	292.05756005779
21	9935	20.3	293.44152113179
21	9996	20.4	294.81881137213
21	10057	20.5	296.19881606858
21	10118	20.6	297.57944725101
21	10180	20.7	298.96668532324
21	10241	20.8	300.34341382008
21	10302	20.9	301.73268406406
21	10363	21	303.10147556027
21	10424	21.1	304.48594064909
21	10500	21.2	305.87456296711
21	10844	21.3	307.25135711481
21	11222	21.4	308.63896661773
21	11282	21.5	310.01644003853
21	11342	21.6	311.40400270388
21	11403	21.7	312.78953820472
21	11469	21.8	314.15947090127
21	11535	21.9	315.54017293249
21	11601	22	316.92177037578
21	11667	22.1	318.29487814713
21	11745	22.2	319.67252920132
21	11811	22.3	321.05996885748
21	12049	22.4	322.44380493402
21	12115	22.5	323.82754497863
21	12197	22.6	325.19981909216
21	12263	22.7	326.5826048432
21	12329	22.8	327.95943215706
21	12567	22.9	329.3440472019
21	12633	23	330.71811064491
21	12699	23.1	332.09765791468
21	12777	23.2	333.47741475956
21	13309	23.3	334.84442707429
21	13376	23.4	336.2113444417
21	13447	23.5	337.57950552097
21	13530	23.6	338.95833359701
21	13601	23.7	340.33893374037
21	13672	23.8	341.71790070361
21	13743	23.9	343.08882157847
21	13814	24	344.45585791727
21	13885	24.1	345.84367334991
21	13958	24.2	347.21724037703
21	14029	24.3	348.58314098402
21	14195	24.4	349.95264042302
21	14448	24.5	351.33657448986
21	15024	24.6	352.72113291883
21	15094	24.7	354.09228566724
21	15164	24.8	355.47437314866
21	15234	24.9	356.85327011342
21	15304	25	358.22022713668
21	15375	25.1	359.59935647075
21	15451	25.2	360.98691456149
21	15527	25.3	362.35364357523
21	15603	25.4	363.73014824071
21	15679	25.5	365.1143636962
21	15757	25.6	366.48245657385
21	15833	25.7	367.86120096205
21	15909	25.8	369.24304801977
21	15985	25.9	370.6327013935
21	16064	26	372.01066701277
21	16657	26.1	373.37804634516
21	16732	26.2	374.76487815334
21	16807	26.3	376.14878756532
21	16882	26.4	377.51911606449
21	16957	26.5	378.90617057109
21	17032	26.6	380.27194137724
21	17108	26.7	381.64404056104
21	17291	26.8	383.02790861245
21	17473	26.9	384.4005099409
21	17554	27	385.77071590535
21	17635	27.1	387.15520269788
21	17716	27.2	388.53728894276
21	17797	27.3	389.9264446534
21	17878	27.4	391.301740867
21	18162	27.5	392.67180951881
21	18243	27.6	394.04140575001
21	18339	27.7	395.42781753582
21	18420	27.8	396.79743690983
21	18501	27.9	398.18591460416
21	18582	28	399.55245820085
21	18663	28.1	400.93897986862
21	18744	28.2	402.32474705143
21	18828	28.3	403.71331028569
21	19454	28.4	405.08596661005
21	19540	28.5	406.45988113216
21	19626	28.6	407.8423648531
21	19724	28.7	409.22887120877
21	19810	28.8	410.59809543085
21	20108	28.9	411.97115772183
21	20194	29	413.35697182638
21	20281	29.1	414.74661553863
21	20367	29.2	416.12266585359
21	20453	29.3	417.50621437318
21	20539	29.4	418.87905486739
21	20625	29.5	420.24989009104
21	20923	29.6	421.63294034252
21	21021	29.7	423.02084555854
21	21107	29.8	424.39734435955
21	21193	29.9	425.76320100258
21	21282	30	427.14102229947
21	21940	30.1	428.51491672006
21	22031	30.2	429.90237035466
21	22122	30.3	431.28245510176
21	22213	30.4	432.64920233252
21	22529	30.5	434.01938985994
21	22620	30.6	435.40685550886
21	22712	30.7	436.78006731642
21	22807	30.8	438.15807156174
21	23009	30.9	439.52801984871
21	23101	31	440.91487716631
21	23192	31.1	442.28492519087
21	23298	31.2	443.66774665165
21	23611	31.3	445.03504044216
21	23702	31.4	446.4052500787
21	24384	31.5	447.78322401749
21	24474	31.6	449.16181473608
21	24565	31.7	450.53895272762
21	24661	31.8	451.91967240315
21	24757	31.9	453.29166442147
21	24853	32	454.67233805827
21	24949	32.1	456.05470638297
21	25057	32.2	457.43512972399
21	25153	32.3	458.81246643188
21	25249	32.4	460.20139735329
21	25345	32.5	461.57839772862
21	25442	32.6	462.96345975105
21	25538	32.7	464.33855514001
21	25634	32.8	465.72151879683
21	25730	32.9	467.09020157162
21	25826	33	468.45771027897
21	26154	33.1	469.82646803208
21	26262	33.2	471.21637528775
21	26361	33.3	472.60348625503
21	27063	33.4	473.98282140724
21	27411	33.5	475.3668720936
21	27512	33.6	476.73928691785
21	27613	33.7	478.1285398894
21	27714	33.8	479.49955363299
21	27816	33.9	480.86493692301
21	27917	34	482.23924303014
21	28018	34.1	483.60996080627
21	28120	34.2	484.98476726019
21	28224	34.3	486.36753842589
21	28957	34.4	487.74254889212
21	29299	34.5	489.11737416283
21	29399	34.6	490.49198423223
21	29499	34.7	491.8621987089
21	29599	34.8	493.23719409836
21	29699	34.9	494.62461427019
21	29799	35	495.99664229738
21	29900	35.1	497.36642709414
21	30006	35.2	498.75495687612
21	30112	35.3	500.1260209376
21	30218	35.4	501.51217236765
21	30324	35.5	502.89860096635
21	30430	35.6	504.26846543717
21	30536	35.7	505.6339560603
21	30642	35.8	507.00977504642
21	30748	35.9	508.3960296589
21	30855	36	509.77674922415
21	31207	36.1	511.16298134556
21	31313	36.2	512.53825556749
21	31419	36.3	513.90999464689
21	31780	36.4	515.27531061233
21	32802	36.5	516.64605407623
21	32907	36.6	518.03264326694
21	33013	36.7	519.41836989674
21	33124	36.8	520.78696528203
21	33235	36.9	522.17339081246
21	33346	37	523.54568180581
21	33457	37.1	524.9230125622
21	33568	37.2	526.3014151952
21	33679	37.3	527.68769734175
21	33806	37.4	529.06733123811
21	33917	37.5	530.44594624575
21	34028	37.6	531.82014864219
21	34139	37.7	533.19576354211
21	34250	37.8	534.56195814672
21	34361	37.9	535.94731158055
21	34731	38	537.33403367472
21	35528	38.1	538.70392842014
21	35638	38.2	540.07652032815
21	35748	38.3	541.46210985902
21	36133	38.4	542.83492606415
21	36249	38.5	544.21815450498
21	36365	38.6	545.6050345938
21	36481	38.7	546.97727196069
21	36737	38.8	548.34528652427
21	36854	38.9	549.73317556615
21	36970	39	551.111148017
21	37348	39.1	552.48918362057
21	38177	39.2	553.85557176639
21	38292	39.3	555.23896862311
21	38419	39.4	556.60680154261
21	38811	39.5	557.97742990633
21	38941	39.6	559.3629038646
21	39056	39.7	560.74549743294
21	39171	39.8	562.12088131808
21	39286	39.9	563.50055890266
21	39401	40	564.86639045904
21	39517	40.1	566.24580171354
21	39638	40.2	567.61824323488
21	40041	40.3	569.00179426541
21	40449	40.4	570.38004295543
21	40570	40.5	571.75551806004
21	40703	40.6	573.13785738564
21	40824	40.7	574.51608908183
21	40946	40.8	575.89195647178
21	41353	40.9	577.25838548564
21	41746	41	578.63012624145
21	42587	41.1	580.00742513313
21	42707	41.2	581.39721397961
21	42827	41.3	582.77602639377
21	43232	41.4	584.15182061215
21	43352	41.5	585.51861806772
21	43766	41.6	586.90446465843
21	43887	41.7	588.28718062012
21	44013	41.8	589.65371383535
21	44139	41.9	591.03006749459
21	44265	42	592.40827516785
21	44664	42.1	593.78987209076
21	44790	42.2	595.15487299032
21	44916	42.3	596.53143240645
21	45044	42.4	597.91616464049
21	45458	42.5	599.28476376561
21	46325	42.6	600.66780204163
21	46450	42.7	602.04021628108
21	46575	42.8	603.41951980148
21	46700	42.9	604.79807768219
21	46825	43	606.18538144013
21	47242	43.1	607.56851588748
21	47367	43.2	608.9485880877
21	47492	43.3	610.31433276425
21	47913	43.4	611.70167771753
21	48044	43.5	613.08742950098
21	48175	43.6	614.45268536339
21	48306	43.7	615.82850089847
21	48452	43.8	617.19660676912
21	48889	43.9	618.58648918764
21	49303	44	619.9590234389
21	50191	44.1	621.32743574739
21	50321	44.2	622.70973660515
21	50451	44.3	624.08279222668
21	51041	44.4	625.45586191601
21	51171	44.5	626.82550462423
21	51301	44.6	628.19590254802
21	51431	44.7	629.57174722165
21	51722	44.8	630.9372914983
21	52003	44.9	632.31408938056
21	52133	45	633.68115089336
21	52547	45.1	635.06109787768
21	52683	45.2	636.43004367503
21	52819	45.3	637.80315175857
21	53267	45.4	639.17303463325
21	53705	45.5	640.54815403074
21	53842	45.6	641.9339621853
21	53978	45.7	643.31468606137
21	54126	45.8	644.69462754236
21	54262	45.9	646.06789396432
21	54398	46	647.45235916038
21	55030	46.1	648.82915040346
21	55747	46.2	650.20407986503
21	55882	46.3	651.57743225026
21	56332	46.4	652.95014061031
21	56467	46.5	654.31969584137
21	56602	46.6	655.68637378041
21	56738	46.7	657.06169486759
21	56880	46.8	658.42747990234
21	57659	46.9	659.79683536904
21	58100	47	661.16713448497
21	58563	47.1	662.54433646958
21	58704	47.2	663.91046176826
21	58845	47.3	665.29445055527
21	59313	47.4	666.67692085999
21	59454	47.5	668.06268060492
21	59911	47.6	669.44439631514
21	60053	47.7	670.81384422977
21	60346	47.8	672.1867337536
21	60648	47.9	673.56446176238
21	60789	48	674.95092640967
21	61224	48.1	676.31767939409
21	61365	48.2	677.69998319576
21	61509	48.3	679.08814202953
21	62439	48.4	680.45769059463
21	63245	48.5	681.8360830754
21	63391	48.6	683.22227955415
21	63537	48.7	684.59149985019
21	63683	48.8	685.97377824659
21	63829	48.9	687.35201266664
21	63975	49	688.71715026831
21	64137	49.1	690.09112216006
21	64283	49.2	691.47543540495
21	64758	49.3	692.8570432105
21	65239	49.4	694.2235011521
21	65397	49.5	695.60856302689
21	65543	49.6	696.99551470215
21	65689	49.7	698.37387755312
21	65835	49.8	699.74731538307
21	66635	49.9	701.12097809788
21	67085	50	702.49037616741
21	67247	50.1	703.86998644974
21	68214	50.2	705.25429472624
21	68365	50.3	706.64360437515
21	69193	50.4	708.02606805905
21	69356	50.5	709.40447224585
21	69833	50.6	710.78663962786
21	69984	50.7	712.1662759623
21	70291	50.8	713.54294220822
21	70610	50.9	714.92388573769
21	70761	51	716.30136824933
21	71382	51.1	717.66768276124
21	71533	51.2	719.03534539767
21	71684	51.3	720.42499259287
21	72168	51.4	721.79723890918
21	72640	51.5	723.17061747237
21	72961	51.6	724.53717530435
21	73113	51.7	725.92427826045
21	73270	51.8	727.29614709718
21	73427	51.9	728.68174865642
21	74112	52	730.06594010137
21	74895	52.1	731.45012594665
21	75055	52.2	732.82987465856
21	76382	52.3	734.20531126926
21	76880	52.4	735.58719695585
21	77375	52.5	736.97023356304
21	77530	52.6	738.35936056071
21	77685	52.7	739.72663522385
21	77840	52.8	741.10626014812
21	78665	52.9	742.48271143705
21	78949	53	743.86099694297
21	79105	53.1	745.22773327873
21	79260	53.2	746.60430024948
21	79415	53.3	747.9876625564
21	79922	53.4	749.36450014733
21	80433	53.5	750.73730307561
21	80931	53.6	752.12691041684
21	81092	53.7	753.50005323871
21	81413	53.8	754.88296275998
21	81749	53.9	756.26831581707
21	81910	54	757.64525258306
21	82539	54.1	759.02284749183
21	82700	54.2	760.399829592
21	83700	54.3	761.76492462325
21	84225	54.4	763.14062839272
21	84719	54.5	764.51818530037
21	84879	54.6	765.89646430156
21	85039	54.7	767.26958363282
21	85199	54.8	768.63647958214
21	85359	54.9	770.00300667538
21	85520	55	771.37818896932
21	86031	55.1	772.74387347657
21	86197	55.2	774.12900221798
21	86713	55.3	775.51128733735
21	87254	55.4	776.88143293568
21	87773	55.5	778.26033360581
21	87940	55.6	779.64868795196
21	88106	55.7	781.0139348385
21	88272	55.8	782.39642546316
21	89145	55.9	783.77368008535
21	89440	56	785.15871036748
21	89606	56.1	786.53986859472
21	90129	56.2	787.92361403142
21	90296	56.3	789.29020018726
21	90836	56.4	790.66906680733
21	91005	56.5	792.05267781856
21	92352	56.6	793.41806104785
21	92518	56.7	794.79064926664
21	92856	56.8	796.17766245901
21	93212	56.9	797.56046811806
21	93383	57	798.92735551546
21	93914	57.1	800.31512250592
21	94085	57.2	801.69031704897
21	94256	57.3	803.0783063369
21	94792	57.4	804.46468626275
21	95311	57.5	805.8306395284
21	95482	57.6	807.19571746704
21	95654	57.7	808.5659632825
21	95825	57.8	809.95480682058
21	96001	57.9	811.3325661126
21	96355	58	812.69795606618
21	96887	58.1	814.06461398815
21	97058	58.2	815.44250352105
21	97959	58.3	816.81247039715
21	98504	58.4	818.18033700826
21	99048	58.5	819.55833136466
21	99228	58.6	820.92821541151
21	100296	58.7	822.29381239705
21	100472	58.8	823.6683740135
21	101390	58.9	825.03895490946
21	101566	59	826.41871292292
21	101757	59.1	827.78558040592
21	101933	59.2	829.16277085882
21	102112	59.3	830.53438407202
21	103483	59.4	831.91571740107
21	103659	59.5	833.29626682428
21	104934	59.6	834.667826842
21	105109	59.7	836.04787549151
21	105450	59.8	837.42017659868
21	105812	59.9	838.78777529241
21	105987	60	840.17118939342
21	106536	60.1	841.54589651203
21	106717	60.2	842.92876431352
21	106898	60.3	844.31551619179
21	107450	60.4	845.70439272225
21	107785	60.5	847.07438644249
21	107967	60.6	848.44528229722
21	109035	60.7	849.83323747032
21	109215	60.8	851.19899095557
21	109395	60.9	852.5660432944
21	109575	61	853.94492896439
21	110517	61.1	855.33477981101
21	110697	61.2	856.71177090733
21	111619	61.3	858.08612374414
21	112174	61.4	859.46373383101
21	112719	61.5	860.83171238058
21	112899	61.6	862.20168801747
21	113080	61.7	863.57982208195
21	113267	61.8	864.95596804515
21	113997	61.9	866.34497198238
21	114183	62	867.71659342453
21	114370	62.1	869.08549782725
21	114556	62.2	870.45968088837
21	114742	62.3	871.83096076797
21	115307	62.4	873.2062630205
21	115494	62.5	874.59031264195
21	116220	62.6	875.96289957011
21	116409	62.7	877.33417632391
21	117617	62.8	878.71316691551
21	117802	62.9	880.08807972637
21	117987	63	881.47783594862
21	118541	63.1	882.84489573286
21	119096	63.2	884.22384249071
21	119281	63.3	885.60194558917
21	120230	63.4	886.97473594529
21	120573	63.5	888.34432960165
21	120764	63.6	889.71723666228
21	120955	63.7	891.10159141025
21	121146	63.8	892.49147979545
21	121338	63.9	893.86604801553
21	121529	64	895.24847128324
21	122112	64.1	896.61853689478
21	122303	64.2	897.99194380759
21	123258	64.3	899.36109514222
21	123853	64.4	900.74512044608
21	124423	64.5	902.11605808911
21	124615	64.6	903.49035927249
21	124806	64.7	904.86296617626
21	125000	64.8	906.23031085231
21	126625	64.9	907.61612158215
21	126815	65	908.98324504842
21	127404	65.1	910.35341318244
21	127600	65.2	911.73096423883
21	127796	65.3	913.09613432673
21	128591	65.4	914.48166652486
21	128788	65.5	915.8500811598
21	129538	65.6	917.22243688956
21	129734	65.7	918.5903867147
21	130088	65.8	919.97179845266
21	131187	65.9	921.35521619764
21	131382	66	922.73286416803
21	131957	66.1	924.11934457689
21	132542	66.2	925.49740661527
21	132738	66.3	926.88407294703
21	133729	66.4	928.27402152809
21	134320	66.5	929.64083196055
21	134515	66.6	931.02035865678
21	134711	66.7	932.39763779728
21	134912	66.8	933.78065998512
21	135113	66.9	935.15593511848
21	135314	67	936.53157035079
21	135914	67.1	937.90119621511
21	136503	67.2	939.29109403273
21	137274	67.3	940.66476093875
21	137873	67.4	942.05196681215
21	138254	67.5	943.43994748867
21	138456	67.6	944.82669987287
21	138657	67.7	946.20816926252
21	138873	67.8	947.5954819612
21	139465	67.9	948.98346006543
21	139666	68	950.35521191043
21	140270	68.1	951.73519567427
21	140471	68.2	953.11963123623
21	141568	68.3	954.50319450034
21	142172	68.4	955.87107548765
21	142379	68.5	957.24003904287
21	142985	68.6	958.61472949716
21	143191	68.7	959.99263480224
21	143409	68.8	961.37437729864
21	143615	68.9	962.75653435705
21	143821	69	964.14498209215
21	144594	69.1	965.51515025312
21	145203	69.2	966.89709339406
21	145793	69.3	968.26396498417
21	146761	69.4	969.63317808055
21	147371	69.5	971.01502129005
21	147577	69.6	972.39084880156
21	147783	69.7	973.75667997467
21	148001	69.8	975.13692460638
21	148207	69.9	976.5216686813
21	148416	70	977.90754892073
21	149907	70.1	979.28562980962
21	150118	70.2	980.67453690421
21	150905	70.3	982.05408907378
21	151521	70.4	983.41980311774
21	151911	70.5	984.79082221192
21	152123	70.6	986.16229241192
21	152349	70.7	987.52927883077
21	152561	70.8	988.90178168102
21	153177	70.9	990.26870069654
21	154297	71	991.65454080433
21	155120	71.1	993.04157095368
21	155330	71.2	994.41840909221
21	155929	71.3	995.79197690564
21	156553	71.4	997.16873137838
21	157187	71.5	998.55073977565
21	157804	71.6	999.92742400327
21	158027	71.7	1001.3009058055
21	158243	71.8	1002.681090585
21	158459	71.9	1004.0549736375
21	158675	72	1005.4214612174
21	159481	72.1	1006.7874773439
21	160121	72.2	1008.1604592156
21	160337	72.3	1009.5455081718
21	161332	72.4	1010.9240641794
21	161962	72.5	1012.2917129456
21	162178	72.6	1013.6749123157
21	162406	72.7	1015.0598438803
21	162622	72.8	1016.4397993855
21	162838	72.9	1017.8136229882
21	163977	73	1019.2003118506
22	15	0.2	0.48627966244239
22	26	0.3	0.95704413303575
22	35	0.4	1.4049410096237
22	44	0.5	1.8245271876768
22	54	0.6	2.2544701955678
22	63	0.7	2.6363109136032
22	72	0.8	3.0508647608099
22	81	0.9	3.4004409439418
22	93	1	3.8178189181673
22	214	1.1	4.1831971619179
22	223	1.2	4.5319546875829
22	232	1.3	4.9358592605271
22	241	1.4	5.3264624580328
22	250	1.5	5.7520788067189
22	259	1.6	6.0291355562798
22	268	1.7	6.5149573123484
22	278	1.8	6.774041621334
22	289	1.9	7.1781812410039
22	313	2	7.4802499826468
22	324	2.1	7.8480262522638
22	336	2.2	8.206015111325
22	347	2.3	8.4746159530181
22	358	2.4	8.9568569383404
22	369	2.5	9.4350746140984
22	380	2.6	9.9300200143183
22	391	2.7	10.221865053608
22	402	2.8	10.527325864386
22	413	2.9	10.809822828072
22	566	3	11.065168242348
22	577	3.1	11.365378601389
22	588	3.2	11.750008760689
22	599	3.3	12.054876466776
22	610	3.4	12.525307860836
22	622	3.5	12.865327606588
22	635	3.6	13.23098429953
22	648	3.7	13.600522217486
22	661	3.8	13.781599894317
22	674	3.9	13.706441578374
22	687	4	13.845862410823
22	700	4.1	13.895302550495
22	713	4.2	13.862581284053
22	726	4.3	13.745766500337
22	740	4.4	13.674350382155
22	753	4.5	13.810123024485
22	766	4.6	13.674412855448
22	779	4.7	13.884943633375
22	792	4.8	13.73671499195
22	805	4.9	13.847404359584
22	818	5	13.712328465283
22	831	5.1	13.809072306647
22	845	5.2	13.890393643617
22	863	5.3	13.660262682685
22	1071	5.4	13.741235280735
22	1086	5.5	13.754537416948
[...]
329	143821	69	2.7241903042886
329	144594	69.1	4.6861608838663
329	145203	69.2	3.561985520646
329	145793	69.3	3.5194306593621
329	146761	69.4	2.9719487641705
329	147371	69.5	2.9866254504304
329	147577	69.6	3.9272483589593
329	147783	69.7	4.119202887523
329	148001	69.8	3.2049310120055
329	148207	69.9	4.8431508179056
329	148416	70	2.651917655021
329	149907	70.1	2.5438447424676
329	150118	70.2	3.8864667026792
329	150905	70.3	2.5189565058099
329	151521	70.4	3.1099284248194
329	151911	70.5	3.0310228676535
329	152123	70.6	0.40751705821171
329	152349	70.7	-0.5201579403365
329	152561	70.8	0.9829951095162
329	153177	70.9	0.59612847631797
329	154297	71	0.61545512580778
329	155120	71.1	0.10741593199782
329	155330	71.2	-2.195475208573
329	155929	71.3	-0.1172780309571
329	156553	71.4	2.2571501252241
329	157187	71.5	-0.20189699542243
329	157804	71.6	-1.6194158035796
329	158027	71.7	-0.30490731936879
329	158243	71.8	-0.13289826049004
329	158459	71.9	0.3333116392605
329	158675	72	1.5416757127969
329	159481	72.1	0.35340884816833
329	160121	72.2	-0.69116531696636
329	160337	72.3	0.087599433027208
329	161332	72.4	-0.24685866315849
329	161962	72.5	-0.0092081096954644
329	162178	72.6	0.17336059594527
329	162406	72.7	0.18206110980827
329	162622	72.8	-1.3962021173211
329	162838	72.9	1.3079576462042
329	163977	73	-0.035698084393516
330	135113	66.9	2.2406384111144
330	135314	67	2.6733927850632
330	135914	67.1	3.0066840243528
330	136503	67.2	3.8411332593048
330	137274	67.3	4.3567527123947
330	137873	67.4	4.1544900182941
330	138254	67.5	3.9382296458879
330	138456	67.6	6.0629865846544
330	138657	67.7	4.7465276057017
330	138873	67.8	4.6050691303879
330	139465	67.9	5.1765537824327
330	139666	68	4.7236694527351
330	140270	68.1	7.153090555111
330	140471	68.2	7.0945021371254
330	141568	68.3	5.2036892281762
330	142172	68.4	5.6288715765388
330	142379	68.5	7.225493656145
330	142985	68.6	7.6508004095473
330	143191	68.7	7.4379321922196
330	143409	68.8	7.4610247884498
330	143615	68.9	9.1731936769285
330	143821	69	7.1635186753837
330	144594	69.1	11.748461891732
330	145203	69.2	9.6475277935781
330	145793	69.3	9.8761176315691
330	146761	69.4	8.8333646405476
330	147371	69.5	9.1065490501641
330	147577	69.6	11.839797606364
330	147783	69.7	12.775896379016
330	148001	69.8	10.607480482812
330	148207	69.9	15.717709482051
330	148416	70	9.6312978716903
330	149907	70.1	9.4935541985864
330	150118	70.2	13.909047979132
330	150905	70.3	9.8676452305647
330	151521	70.4	11.989516883639
330	151911	70.5	11.986796651839
330	152123	70.6	3.3550465705668
330	152349	70.7	0.973
330	152561	70.8	5.2715006198893
330	153177	70.9	4.0039193845881
330	154297	71	4.0836155942669
330	155120	71.1	2.3863996793402
330	155330	71.2	0.973
330	155929	71.3	1.6178027195976
330	156553	71.4	9.5758271409009
330	157187	71.5	1.3500753649708
330	157804	71.6	0.973
330	158027	71.7	0.973
330	158243	71.8	1.5663946555129
330	158459	71.9	3.1063382444222
330	158675	72	7.1646363458099
330	159481	72.1	3.2078801877026
330	160121	72.2	0.973
330	160337	72.3	2.3116419268825
330	161332	72.4	1.1970793756461
330	161962	72.5	1.9868028405808
330	162178	72.6	2.5959914426221
330	162406	72.7	2.6275815406586
330	162622	72.8	0.973
330	162838	72.9	6.3751367404858
330	163977	73	1.900910560878
331	142172	68.4	20.05
331	142379	68.5	20.05
331	142985	68.6	20.05
331	143191	68.7	20.05
331	143409	68.8	20.05
331	143615	68.9	20.05
331	143821	69	20.05
331	144594	69.1	20.05
331	145203	69.2	20.05
331	145793	69.3	20.05
331	146761	69.4	20.05
331	147371	69.5	20.05
331	147577	69.6	20.05
331	147783	69.7	20.05
331	148001	69.8	20.05
331	148207	69.9	20.05
331	148416	70	20.05
331	149907	70.1	20.05
331	150118	70.2	20.05
331	150905	70.3	20.05
331	151521	70.4	20.05
331	151911	70.5	20.05
331	152123	70.6	20.05
331	152349	70.7	20.05
331	152561	70.8	20.05
331	153177	70.9	20.05
331	154297	71	20.05
331	155120	71.1	20.05
331	155330	71.2	20.05
331	155929	71.3	20.05
331	156553	71.4	20.05
331	157187	71.5	20.05
331	157804	71.6	20.05
331	158027	71.7	20.05
331	158243	71.8	20.05
331	158459	71.9	20.05
331	158675	72	20.05
331	159481	72.1	20.05
331	160121	72.2	20.05
331	160337	72.3	20.05
331	161332	72.4	20.05
331	161962	72.5	20.05
331	162178	72.6	20.05
331	162406	72.7	20.05
331	162622	72.8	20.05
331	162838	72.9	20.05
331	163977	73	20.05
332	142172	68.4	39.95
332	142379	68.5	39.95
332	142985	68.6	39.999004755584
332	143191	68.7	40.094995566402
332	143409	68.8	40.239386924032
332	143615	68.9	40.429207245762
332	143821	69	40.662725833806
332	144594	69.1	40.943088090116
332	145203	69.2	41.26084707233
332	145793	69.3	41.612770422371
332	146761	69.4	42.004378811279
332	147371	69.5	42.441760444547
332	147577	69.6	42.910868071087
332	147783	69.7	43.412370885497
332	148001	69.8	43.953114813829
332	148207	69.9	44.526854621001
332	148416	70	45.128931646471
332	149907	70.1	45.768519938686
332	150118	70.2	46.445604036091
332	150905	70.3	47.167235581412
332	151521	70.4	47.926576429969
332	151911	70.5	48.716349420983
332	152123	70.6	49.544193176855
332	152349	70.7	50.402945118442
332	152561	70.8	51.295701331147
332	153177	70.9	52.220381420596
332	154297	71	53.19307001832
332	155120	71.1	54.195771282449
332	155330	71.2	55.232511988104
332	155929	71.3	56.305427786208
332	156553	71.4	57.415920564776
332	157187	71.5	58.569578242428
332	157804	71.6	59.750244276763
332	158027	71.7	60.96420911447
332	158243	71.8	62.218041779298
332	158459	71.9	63.497737664034
332	158675	72	64.807726369841
332	159481	72.1	66.147590131976
332	160121	72.2	67.516279152261
332	160337	72.3	68.896752643512
332	161332	72.4	70.285625661281
332	161962	72.5	71.657344785295
332	162178	72.6	73.039969535039
332	162406	72.7	74.414357331784
332	162622	72.8	75.790993245228
332	162838	72.9	77.165139576752
332	163977	73	78.545797422968
333	142210	68.4	1000
333	142417	68.5	1000
333	143023	68.6	1000
333	143229	68.7	1000
333	143447	68.8	1000
333	143653	68.9	1000
333	143859	69	1000
333	144632	69.1	1000
333	145241	69.2	1000
333	145831	69.3	1000
333	146799	69.4	1000
333	147409	69.5	1000
333	147615	69.6	1000
333	147821	69.7	1000
333	148039	69.8	1000
333	148245	69.9	1000
333	148454	70	1000
333	149945	70.1	1000
333	150156	70.2	1000
333	150943	70.3	1000
333	151559	70.4	1000
333	151949	70.5	1000
333	152161	70.6	1000
333	152387	70.7	1000
333	152599	70.8	1000
333	153215	70.9	1000
333	154335	71	1000
333	155158	71.1	1000
333	155368	71.2	1000
333	155967	71.3	1000
333	156591	71.4	1000
333	157225	71.5	1000
333	157842	71.6	1000
333	158065	71.7	1000
333	158281	71.8	1000
333	158497	71.9	1000
333	158713	72	1000
333	159519	72.1	1000
333	160159	72.2	1000
333	160375	72.3	1000
333	161370	72.4	1000
333	162000	72.5	1000
333	162216	72.6	1000
333	162444	72.7	1000
333	162660	72.8	1000
333	162876	72.9	1000
333	164015	73	1000
334	142249	68.4	1008
334	142455	68.5	1008
334	143061	68.6	1008
334	143267	68.7	1008
334	143485	68.8	1008
334	143691	68.9	1008
334	143897	69	1008
334	144670	69.1	1008
334	145279	69.2	1008
334	145869	69.3	1008
334	146837	69.4	1008
334	147447	69.5	1008
334	147653	69.6	1008
334	147859	69.7	1008
334	148077	69.8	1008
334	148283	69.9	1008
334	148492	70	1008
334	149984	70.1	1008
334	150195	70.2	1008
334	150982	70.3	1008
334	151598	70.4	1008
334	151988	70.5	1008
334	152200	70.6	1008
334	152426	70.7	1008
334	152638	70.8	1008
334	153254	70.9	1008
334	154374	71	1008
334	155197	71.1	1008
334	155407	71.2	1008
334	156006	71.3	1008
334	156630	71.4	1008
334	157264	71.5	1008
334	157881	71.6	1008
334	158105	71.7	1008
334	158321	71.8	1008
334	158537	71.9	1008
334	158753	72	1008
334	159559	72.1	1008
334	160199	72.2	1008
334	160415	72.3	1008
334	161410	72.4	1008
334	162040	72.5	1008
334	162256	72.6	1008
334	162484	72.7	1008
334	162700	72.8	1008
334	162916	72.9	1008
334	164055	73	1008
335	142379	68.5	0.49004755584174
335	142985	68.6	0.95990810818015
335	143191	68.7	1.4439135762955
335	143409	68.8	1.8982032173015
335	143615	68.9	2.3351858804444
335	143821	69	2.803622563102
335	144594	69.1	3.1775898221324
335	145203	69.2	3.5192335004122
335	145793	69.3	3.9160838890826
335	146761	69.4	4.3738163326787
335	147371	69.5	4.6910762653999
335	147577	69.6	5.0150281441013
335	147783	69.7	5.4074392833129
335	148001	69.8	5.7373980717232
335	148207	69.9	6.0207702547043
335	148416	70	6.3958829221513
335	149907	70.1	6.7708409740437
335	150118	70.2	7.2163154532166
335	150905	70.3	7.5934084855683
335	151521	70.4	7.8977299101382
335	151911	70.5	8.278437558721
335	152123	70.6	8.5875194158718
335	152349	70.7	8.9275621270492
335	152561	70.8	9.2468008944845
335	153177	70.9	9.7268859772441
335	154297	71	10.027012641294
335	155120	71.1	10.367407056546
335	155330	71.2	10.72915798104
335	155929	71.3	11.104927785679
335	156553	71.4	11.536576776517
335	157187	71.5	11.806660343354
335	157804	71.6	12.139648377065
335	158027	71.7	12.538326648282
335	158243	71.8	12.796958847364
335	158459	71.9	13.099887058065
335	158675	72	13.398637621357
335	159481	72.1	13.68689020285
335	160121	72.2	13.804734912503
335	160337	72.3	13.888730177691
335	161332	72.4	13.717191240145
335	161962	72.5	13.826247497438
335	162178	72.6	13.743877967447
335	162406	72.7	13.766359134438
335	162622	72.8	13.741463315242
335	162838	72.9	13.806578462163
335	163977	73	13.892954605899
336	142985	68.6	4.6986055233841
336	143191	68.7	4.8400546811534
336	143409	68.8	4.54289641006
336	143615	68.9	4.3698266314288
336	143821	69	4.6843668265767
336	144594	69.1	3.7396725903035
336	145203	69.2	3.4164367827984
336	145793	69.3	3.9685038867034
336	146761	69.4	4.5773244359611
336	147371	69.5	3.1725993272126
336	147577	69.6	3.2395187870134
336	147783	69.7	3.9241113921162
336	148001	69.8	3.2995878841029
336	148207	69.9	2.8337218298111
336	148416	70	3.7511266744696
336	149907	70.1	3.7495805189246
336	150118	70.2	4.4547447917284
336	150905	70.3	3.770930323517
336	151521	70.4	3.0432142456993
336	151911	70.5	3.8070764858276
336	152123	70.6	3.0908185715089
336	152349	70.7	3.4004271117738
336	152561	70.8	3.1923876743531
336	153177	70.9	4.8008508275962
336	154297	71	3.0012666404946
336	155120	71.1	3.4039441525238
336	155330	71.2	3.6175092449412
336	155929	71.3	3.7576980463928
336	156553	71.4	4.3164899083786
336	157187	71.5	2.7008356683655
336	157804	71.6	3.3298803371144
336	158027	71.7	3.9867827121634
336	158243	71.8	2.5863219908206
336	158459	71.9	3.0292821070179
336	158675	72	2.9875056329183
336	159481	72.1	2.88252581493
336	160121	72.2	1.1784470965281
336	160337	72.3	0.83995265187696
336	161332	72.4	-1.7153893754585
336	161962	72.5	1.0905625729356
336	162178	72.6	-0.82369529991411
336	162406	72.7	0.22481166990474
336	162622	72.8	-0.24895819195081
336	162838	72.9	0.65115146921016
336	163977	73	0.86376143735833
337	142985	68.6	2.2433529934994
337	143191	68.7	2.8641900679682
337	143409	68.8	3.2804262341527
337	143615	68.9	3.6830758636158
337	143821	69	4.4123828981837
337	144594	69.1	4.1300889313407
337	145203	69.2	4.1813947698015
337	145793	69.3	5.0498393735746
337	146761	69.4	6.1536331588974
337	147371	69.5	4.9326142467644
337	147577	69.6	5.2789297237111
337	147783	69.7	6.4993353975731
337	148001	69.8	5.9666018061335
337	148207	69.9	5.5323500693215
337	148416	70	7.2247231119548
337	149907	70.1	7.5837632101137
337	150118	70.2	9.2402195485276
337	150905	70.3	8.4175983653832
337	151521	70.4	7.3288043143304
337	151911	70.5	9.1572737077076
337	152123	70.6	7.9794985767282
337	152349	70.7	8.9225601189912
337	152561	70.8	8.7432723377037
337	153177	70.9	12.918295898187
337	154297	71	8.9394236022556
337	155120	71.1	10.217971459857
337	155330	71.2	11.095561962215
337	155929	71.3	11.828890947707
337	156553	71.4	13.809567701531
337	157187	71.5	9.5165636092049
337	157804	71.6	11.602967411361
337	158027	71.7	13.943948839839
337	158243	71.8	9.8973103096689
337	158459	71.9	11.51327339501
337	158675	72	11.625425476356
337	159481	72.1	11.515241284604
337	160121	72.2	5.9395928406086
337	160337	72.3	4.8389599134612
337	161332	72.4	0.973
337	161962	72.5	5.6550359703227
337	162178	72.6	0.973
337	162406	72.7	2.7609523456621
337	162622	72.8	1.1881171644137
337	162838	72.9	4.1857869538462
337	163977	73	4.9199613709828
338	149907	70.1	20.05
338	150118	70.2	20.05
338	150905	70.3	20.05
338	151521	70.4	20.05
338	151911	70.5	20.05
338	152123	70.6	20.05
338	152349	70.7	20.05
338	152561	70.8	20.05
338	153177	70.9	20.05
338	154297	71	20.05
338	155120	71.1	20.05
338	155330	71.2	20.05
338	155929	71.3	20.05
338	156553	71.4	20.05
338	157187	71.5	20.05
338	157804	71.6	20.05
338	158027	71.7	20.05
338	158243	71.8	20.05
338	158459	71.9	20.05
338	158675	72	20.05
338	159481	72.1	20.05
338	160121	72.2	20.05
338	160337	72.3	20.05
338	161332	72.4	20.05
338	161962	72.5	20.05
338	162178	72.6	20.05
338	162406	72.7	20.05
338	162622	72.8	20.05
338	162838	72.9	20.05
338	163977	73	20.05
339	149907	70.1	39.95
339	150118	70.2	39.95
339	150905	70.3	39.99806433601
339	151521	70.4	40.095695831228
339	151911	70.5	40.240370167555
339	152123	70.6	40.426735761669
339	152349	70.7	40.652690137718
339	152561	70.8	40.923785972942
339	153177	70.9	41.23885963309
339	154297	71	41.599133556597
339	155120	71.1	41.989750290851
339	155330	71.2	42.424118514573
339	155929	71.3	42.897574539834
339	156553	71.4	43.406684609881
339	157187	71.5	43.949658267728
339	157804	71.6	44.539521480005
339	158027	71.7	45.179002262734
339	158243	71.8	45.856489786138
339	158459	71.9	46.575038907896
339	158675	72	47.333194726457
339	159481	72.1	48.123483228864
339	160121	72.2	48.96225525147
339	160337	72.3	49.831982100914
339	161332	72.4	50.7486958478
339	161962	72.5	51.700301158543
339	162178	72.6	52.689297818173
339	162406	72.7	53.714411984152
339	162622	72.8	54.785532655042
339	162838	72.9	55.906269703936
339	163977	73	57.05861911428
340	149946	70.1	1000
340	150157	70.2	1000
340	150944	70.3	1000
340	151560	70.4	1000
340	151950	70.5	1000
340	152162	70.6	1000
340	152388	70.7	1000
340	152600	70.8	1000
340	153216	70.9	1000
340	154336	71	1000
340	155159	71.1	1000
340	155369	71.2	1000
340	155968	71.3	1000
340	156592	71.4	1000
340	157226	71.5	1000
340	157843	71.6	1000
340	158066	71.7	1000
340	158282	71.8	1000
340	158498	71.9	1000
340	158714	72	1000
340	159520	72.1	1000
340	160160	72.2	1000
340	160376	72.3	1000
340	161371	72.4	1000
340	162001	72.5	1000
340	162217	72.6	1000
340	162445	72.7	1000
340	162661	72.8	1000
340	162877	72.9	1000
340	164016	73	1000
341	149986	70.1	1008
341	150196	70.2	1008
341	150983	70.3	1008
341	151599	70.4	1008
341	151989	70.5	1008
341	152201	70.6	1008
341	152427	70.7	1008
341	152639	70.8	1008
341	153255	70.9	1008
341	154375	71	1008
341	155198	71.1	1008
341	155408	71.2	1008
341	156007	71.3	1008
341	156631	71.4	1008
341	157265	71.5	1008
341	157882	71.6	1008
341	158106	71.7	1008
341	158322	71.8	1008
341	158538	71.9	1008
341	158754	72	1008
341	159560	72.1	1008
341	160200	72.2	1008
341	160416	72.3	1008
341	161411	72.4	1008
341	162041	72.5	1008
341	162257	72.6	1008
341	162485	72.7	1008
341	162701	72.8	1008
341	162917	72.9	1008
341	164056	73	1008
342	150118	70.2	0.48064336009556
342	150905	70.3	0.97631495218386
342	151521	70.4	1.4467433632749
342	151911	70.5	1.8636559411357
342	152123	70.6	2.2595437604923
342	152349	70.7	2.7109583522417
342	152561	70.8	3.1507366014732
342	153177	70.9	3.6027392350761
342	154297	71	3.9061673425334
342	155120	71.1	4.3436822372221
342	155330	71.2	4.7345602526148
342	155929	71.3	5.0911007004725
342	156553	71.4	5.4297365784697
342	157187	71.5	5.8986321227676
342	157804	71.6	6.3948078272916
342	158027	71.7	6.7748752340377
342	158243	71.8	7.1854912175732
342	158459	71.9	7.5815581856114
342	158675	72	7.9028850240684
342	159481	72.1	8.3877202260592
342	160121	72.2	8.6972684944449
342	160337	72.3	9.1671374688559
342	161332	72.4	9.5160531074326
342	161962	72.5	9.8899665963073
342	162178	72.6	10.251141659781
342	162406	72.7	10.7112067089
342	162622	72.8	11.207370488944
342	162838	72.9	11.52349410344
342	163977	73	11.900134680775
343	150905	70.3	4.956715920883
343	151521	70.4	4.70428411091
343	151911	70.5	4.1691257786087
343	152123	70.6	3.958878193566
343	152349	70.7	4.5141459174941
343	152561	70.8	4.397782492315
343	153177	70.9	4.520026336029
343	154297	71	3.0342810745729
343	155120	71.1	4.3751489468863
343	155330	71.2	3.9087801539274
343	155929	71.3	3.565404478577
343	156553	71.4	3.3863587799715
343	157187	71.5	4.6889554429799
343	157804	71.6	4.9617570452392
343	158027	71.7	3.8006740674609
343	158243	71.8	4.1061598353554
343	158459	71.9	3.9606696803821
343	158675	72	3.2132683845703
343	159481	72.1	4.8483520199079
343	160121	72.2	3.095482683857
343	160337	72.3	4.6986897441093
343	161332	72.4	3.4891563857673
343	161962	72.5	3.7391348887468
343	162178	72.6	3.6117506347364
343	162406	72.7	4.6006504911929
343	162622	72.8	4.961637800443
343	162838	72.9	3.1612361449515
343	163977	73	3.7664057733491
344	150905	70.3	2.3234585264358
344	151521	70.4	2.8202905628465
344	151911	70.5	3.0730263819569
344	152123	70.6	3.3758733945165
344	152349	70.7	4.1918935941928
344	152561	70.8	4.6042382200155
344	153177	70.9	5.2126747857767
344	154297	71	4.1603700970159
344	155120	71.1	5.9071359998823
344	155330	71.2	5.8082309665826
344	155929	71.3	5.7423766218823
344	156553	71.4	5.817994185252
344	157187	71.5	8.0791894933356
344	157804	71.6	9.0894485598682
344	158027	71.7	7.6710773961928
344	158243	71.8	8.6015511838594
344	158459	71.9	8.752751468356
344	158675	72	7.6568073153914
344	159481	72.1	11.36979267062
344	160121	72.2	8.0785915315852
344	160337	72.3	12.004110824383
344	161332	72.4	9.6505823261826
344	161962	72.5	10.588615385521
344	162178	72.6	10.626951011073
344	162406	72.7	13.616355602321
344	162622	72.8	15.181951671814
344	162838	72.9	10.586518079262
344	163977	73	12.64153825133
345	158027	71.7	20.05
345	158243	71.8	20.05
345	158459	71.9	20.05
345	158675	72	20.05
345	159481	72.1	20.05
345	160121	72.2	20.05
345	160337	72.3	20.05
345	161332	72.4	20.05
345	161962	72.5	20.05
345	162178	72.6	20.05
345	162406	72.7	20.05
345	162622	72.8	20.05
345	162838	72.9	20.05
345	163977	73	20.05
346	158027	71.7	39.95
346	158243	71.8	39.95
346	158459	71.9	39.997634091709
346	158675	72	40.092463850095
346	159481	72.1	40.235453048691
346	160121	72.2	40.420284621974
346	160337	72.3	40.650942184538
346	161332	72.4	40.927608950615
346	161962	72.5	41.238071155481
346	162178	72.6	41.582096392062
346	162406	72.7	41.958341518403
346	162622	72.8	42.373566447312
346	162838	72.9	42.823560902521
346	163977	73	43.300586387849
347	158067	71.7	1000
347	158283	71.8	1000
347	158499	71.9	1000
347	158715	72	1000
347	159521	72.1	1000
347	160161	72.2	1000
347	160377	72.3	1000
347	161372	72.4	1000
347	162002	72.5	1000
347	162218	72.6	1000
347	162446	72.7	1000
347	162662	72.8	1000
347	162878	72.9	1000
347	164017	73	1000
348	158108	71.7	1008
348	158323	71.8	1008
348	158539	71.9	1008
348	158755	72	1008
348	159561	72.1	1008
348	160201	72.2	1008
348	160417	72.3	1008
348	161412	72.4	1008
348	162042	72.5	1008
348	162258	72.6	1008
348	162486	72.7	1008
348	162702	72.8	1008
348	162918	72.9	1008
348	164057	73	1008
349	158243	71.8	0.47634091709042
349	158459	71.9	0.94829758385955
349	158675	72	1.4298919859654
349	159481	72.1	1.8483157328253
349	160121	72.2	2.3065756256436
349	160337	72.3	2.7666676607708
349	161332	72.4	3.1046220486586
349	161962	72.5	3.4402523658076
349	162178	72.6	3.7624512634123
349	162406	72.7	4.1522492890859
349	162622	72.8	4.4999445520927
349	162838	72.9	4.7702548532754
349	163977	73	5.2062935005299
350	158459	71.9	4.7195666676913
350	158675	72	4.8159440210582
350	159481	72.1	4.1842374685995
350	160121	72.2	4.5825989281832
350	160337	72.3	4.600920351272
350	161332	72.4	3.3795438788775
350	161962	72.5	3.3563031714898
350	162178	72.6	3.2219889760468
350	162406	72.7	3.8979802567361
350	162622	72.8	3.4769526300686
350	162838	72.9	2.7031030118267
350	163977	73	4.3603864725446
351	158459	71.9	2.2344330876974
351	158675	72	2.8388414854589
351	159481	72.1	3.0635899215885
351	160121	72.2	3.7697995983693
351	160337	72.3	4.3131618134785
351	161332	72.4	3.7911531072545
351	161962	72.5	4.062432835031
351	162178	72.6	4.2179618131977
351	162406	72.7	5.2175958434091
351	162622	72.8	5.1062037044425
351	162838	72.9	4.4577168571318
351	163977	73	6.8452378993883

