version 2
run Speed_50-0-20200720-18:53:46-22709
attr configname Speed_50
attr datetime 20200720-18:53:46
attr experiment Speed_50
attr inifile omnetppTestPmipv6.ini
attr iterationvars ""
attr iterationvarsf ""
attr measurement ""
attr network TestPmipv6
attr processid 22709
attr repetition 0
attr replication #0
attr resultdir results
attr runnumber 0
attr seedset 0
param *.manager.launchConfig "xmldoc(\"notlsvm50.launchd.xml\")"
param *.manager.seed 0
param *.n 3
param **.debug false
param **.coreDebug false
param *.playgroundSizeX 1400m
param *.playgroundSizeY 700m
param *.playgroundSizeZ 50m
param *.annotations.draw true
param *.obstacles.debug false
param *.obstacles.obstacles "xmldoc(\"config.xml\", \"//AnalogueModel[@type='SimpleObstacleShadowing']/obstacles\")"
param *.manager.updateInterval 0.5s
param *.manager.host "\"localhost\""
param *.manager.port 9999
param *.manager.autoShutdown true
param *.manager.launchConfig "xmldoc(\"test2.launchd.xml\")"
param **.rsu[*].numApps 1
param *.rsu[0].mobility.x 200
param *.rsu[0].mobility.y 130
param *.rsu[0].mobility.z 1.895
param *.rsu[1].mobility.x 650
param *.rsu[1].mobility.y 130
param *.rsu[1].mobility.z 1.895
param *.rsu[2].mobility.x 1100
param *.rsu[2].mobility.y 130
param *.rsu[2].mobility.z 1.895
param *.rsu[*].applType "\"TraCIDemoRSU11p\""
param **.rsu[*].app[*].typename "\"UdpSink\""
param **.rsu[*].app[0].destPort 1000
param **.rsu[*].app[0].messageLength 1000B
param **.rsu[*].app[0].sendInterval "uniform(5s, 10s)"
param **.rsu[*].app[0].sendInterval 100ms
param **.rsu[*].app[0].destAddresses "\"node[3]\""
param **.rsu[*].app[0].localAddress "\"\""
param **.rsu[*].app[0].localPort 1000
param **.rsu[*].app[0].replyDelay 0s
param **.app[*].dataTransferMode "\"object\""
param **.eth[*].queue.typename "\"EtherQosQueue\""
param **.eth[*].queue.dataQueue.typename "\"DropTailQueue\""
param **.eth[*].queue.dataQueue.frameCapacity 10
param **.eth[*].mac.duplexMode true
param *.rsu[*].app[0].headerLength "80 bit"
param *.rsu[*].app[0].sendBeacons false
param *.rsu[*].app[0].dataOnSch false
param *.rsu[*].app[0].beaconInterval 1s
param *.rsu[*].app[0].beaconUserPriority 7
param *.rsu[*].app[0].dataUserPriority 5
param *.connectionManager.sendDirect true
param *.connectionManager.maxInterfDist 700m
param *.connectionManager.drawMaxIntfDist true
param *.**.nic.mac1609_4.useServiceChannel false
param *.node[*].nic.mac1609_4.txPower 8mW
param *.rsu[*].nic.mac1609_4.txPower 8mW
param *.**.nic.mac1609_4.bitrate 6Mbps
param *.**.nic.phy80211p.sensitivity -89dBm
param *.**.nic.phy80211p.useThermalNoise false
param *.**.nic.phy80211p.thermalNoise -110dBm
param *.**.nic.phy80211p.decider "xmldoc(\"config.xml\")"
param *.**.nic.phy80211p.analogueModels "xmldoc(\"config.xml\")"
param *.**.nic.phy80211p.usePropagationDelay true
param *.**.nic.phy80211p.antenna "xmldoc(\"antenna.xml\", \"/root/Antenna[@id='monopole']\")"
param *.node[*].applType "\"TraCIDemo11p\""
param *.node[*].appl.headerLength "80 bit"
param *.node[*].appl.sendBeacons false
param *.node[*].appl.dataOnSch false
param *.node[*].appl.beaconInterval 1s
param *.node[*].numApps 1
param **.node[*].app[*].typename "\"UdpBasicApp\""
param **.node[*].app[0].destPort 1000
param **.node[*].app[0].messageLength 1000B
param **.node[*].app[0].sendInterval 100ms
param **.node[*].app[0].destAddresses "\"rsu[0]\""
param **.node[*].app[0].connectPort 1000
param **.node[0].app[0].startTime uniform(1700s,1700.5s)
param **.node[1].app[0].startTime uniform(1700.5s,1800s)
param **.node[2].app[0].startTime uniform(1800s,1800.5s)
param **.node[3].app[0].startTime uniform(1800.5s,1900s)
param **.node[*].app[0].sendInterval 200ms
param **.node[*].app[0].numCommands int(exponential(10))
param **.node[*].app[0].commandLength intWithUnit(exponential(10B))
param **.node[*].app[0].keyPressDelay exponential(0.1s)
param **.node[*].app[0].commandOutputLength intWithUnit(exponential(40B))
param **.node[*].app[0].thinkTime truncnormal(2s,3s)
param **.node[*].app[0].idleInterval truncnormal(3600s,1200s)
param **.node[*].app[0].reconnectInterval 30s
param *.node[*].veinsmobilityType.debug true
param *.node[*].veinsmobility.x 0
param *.node[*].veinsmobility.y 0
param *.node[*].veinsmobility.z 1.895
param *.node[*0].veinsmobility.accidentCount 1
param *.node[*0].veinsmobility.accidentStart 75s
param *.node[*0].veinsmobility.accidentDuration 50s
param **.CN*.numApps 1
param **.CN*.app[*].typename "\"PingApp\""
param **.CN[0].app[0].destAddr "\"node[0]\""
param **.CN[1].app[0].destAddr "\"\""
param **.CN*.app[0].srcAddr "\"\""
param **.CN*.app[0].packetSize 56B
param **.CN*.app[0].sendInterval 5s
param **.CN*.app[0].hopLimit 32
param **.CN[0].app[0].count -1
param **.CN[1].app[0].count 0
param **.CN*.app[0].startTime 5s
param **.CN*.app[0].stopTime 2000s
param **.CN*.app[0].printPing true

vector 0 TestPmipv6.rsu[0].eth[0].queue.pauseQueue queueLength:vector ETV
attr interpolationmode sample-hold
attr title "queue length, vector"
vector 1 TestPmipv6.rsu[0].eth[0].queue.dataQueue queueLength:vector ETV
attr interpolationmode sample-hold
attr title "queue length, vector"
vector 2 TestPmipv6.rsu[0].eth[1].queue.pauseQueue queueLength:vector ETV
attr interpolationmode sample-hold
attr title "queue length, vector"
vector 3 TestPmipv6.rsu[0].eth[1].queue.dataQueue queueLength:vector ETV
attr interpolationmode sample-hold
attr title "queue length, vector"
vector 4 TestPmipv6.rsu[1].eth[0].queue.pauseQueue queueLength:vector ETV
attr interpolationmode sample-hold
attr title "queue length, vector"
vector 5 TestPmipv6.rsu[1].eth[0].queue.dataQueue queueLength:vector ETV
attr interpolationmode sample-hold
attr title "queue length, vector"
vector 6 TestPmipv6.rsu[1].eth[1].queue.pauseQueue queueLength:vector ETV
attr interpolationmode sample-hold
attr title "queue length, vector"
vector 7 TestPmipv6.rsu[1].eth[1].queue.dataQueue queueLength:vector ETV
attr interpolationmode sample-hold
attr title "queue length, vector"
vector 8 TestPmipv6.rsu[1].eth[2].queue.pauseQueue queueLength:vector ETV
attr interpolationmode sample-hold
attr title "queue length, vector"
vector 9 TestPmipv6.rsu[1].eth[2].queue.dataQueue queueLength:vector ETV
attr interpolationmode sample-hold
attr title "queue length, vector"
vector 10 TestPmipv6.rsu[2].eth[0].queue.pauseQueue queueLength:vector ETV
attr interpolationmode sample-hold
attr title "queue length, vector"
vector 11 TestPmipv6.rsu[2].eth[0].queue.dataQueue queueLength:vector ETV
attr interpolationmode sample-hold
attr title "queue length, vector"
vector 12 TestPmipv6.rsu[2].eth[1].queue.pauseQueue queueLength:vector ETV
attr interpolationmode sample-hold
attr title "queue length, vector"
vector 13 TestPmipv6.rsu[2].eth[1].queue.dataQueue queueLength:vector ETV
attr interpolationmode sample-hold
attr title "queue length, vector"
vector 14 TestPmipv6.MA[0].eth[0].queue.pauseQueue queueLength:vector ETV
attr interpolationmode sample-hold
attr title "queue length, vector"
vector 15 TestPmipv6.MA[0].eth[0].queue.dataQueue queueLength:vector ETV
attr interpolationmode sample-hold
attr title "queue length, vector"
vector 16 TestPmipv6.MA[0].eth[1].queue.pauseQueue queueLength:vector ETV
attr interpolationmode sample-hold
attr title "queue length, vector"
vector 17 TestPmipv6.MA[0].eth[1].queue.dataQueue queueLength:vector ETV
attr interpolationmode sample-hold
attr title "queue length, vector"
vector 18 TestPmipv6.MA[0].eth[2].queue.pauseQueue queueLength:vector ETV
attr interpolationmode sample-hold
attr title "queue length, vector"
vector 19 TestPmipv6.MA[0].eth[2].queue.dataQueue queueLength:vector ETV
attr interpolationmode sample-hold
attr title "queue length, vector"
vector 20 TestPmipv6.MA[0].eth[3].queue.pauseQueue queueLength:vector ETV
attr interpolationmode sample-hold
attr title "queue length, vector"
vector 21 TestPmipv6.MA[0].eth[3].queue.dataQueue queueLength:vector ETV
attr interpolationmode sample-hold
attr title "queue length, vector"
vector 22 TestPmipv6.CN[0].eth[0].queue.pauseQueue queueLength:vector ETV
attr interpolationmode sample-hold
attr title "queue length, vector"
vector 23 TestPmipv6.CN[0].eth[0].queue.dataQueue queueLength:vector ETV
attr interpolationmode sample-hold
attr title "queue length, vector"
vector 24 TestPmipv6.node[0].veinsmobility posx ETV
vector 25 TestPmipv6.node[0].veinsmobility posy ETV
vector 26 TestPmipv6.node[0].veinsmobility speed ETV
vector 27 TestPmipv6.node[0].veinsmobility acceleration ETV
vector 28 TestPmipv6.node[0].veinsmobility co2emission ETV
vector 29 TestPmipv6.CN[0].eth[0].encap encapPk:vector(packetBytes) ETV
attr interpolationmode none
attr source encapPk
attr title "packets encapsulated, vector(packetBytes)"
vector 30 TestPmipv6.CN[0].eth[0].queue.dataQueue packetReceived:vector(packetBytes) ETV
attr interpolationmode none
attr title "received packets, vector(packetBytes)"
vector 31 TestPmipv6.CN[0].eth[0].queue.dataQueue queueingTime:vector ETV
attr interpolationmode none
attr title "queueing time, vector"
vector 32 TestPmipv6.CN[0].eth[0].mac packetReceivedFromUpper:vector(packetBytes) ETV
attr interpolationmode none
attr source packetReceivedFromUpper
attr title "packet bytes from higher layer, vector(packetBytes)"
vector 33 TestPmipv6.CN[0].eth[0].mac txPk:vector(packetBytes) ETV
attr interpolationmode none
attr source packetSentToLower
attr title "packets transmitted, vector(packetBytes)"
vector 34 TestPmipv6.MA[0].eth[3].mac rxPkOk:vector(packetBytes) ETV
attr interpolationmode none
attr source rxPkOk
attr title "packets received OK, vector(packetBytes)"
vector 35 TestPmipv6.MA[0].eth[3].mac passedUpPk:vector(packetBytes) ETV
attr interpolationmode none
attr source packetSentToUpper
attr title "packets passed to higher layer, vector(packetBytes)"
vector 36 TestPmipv6.MA[0].eth[3].encap decapPk:vector(packetBytes) ETV
attr interpolationmode none
attr source decapPk
attr title "packets decapsulated, vector(packetBytes)"
vector 37 TestPmipv6.MA[0].eth[3].encap encapPk:vector(packetBytes) ETV
attr interpolationmode none
attr source encapPk
attr title "packets encapsulated, vector(packetBytes)"
vector 38 TestPmipv6.MA[0].eth[3].queue.dataQueue packetReceived:vector(packetBytes) ETV
attr interpolationmode none
attr title "received packets, vector(packetBytes)"
vector 39 TestPmipv6.MA[0].eth[3].queue.dataQueue queueingTime:vector ETV
attr interpolationmode none
attr title "queueing time, vector"
vector 40 TestPmipv6.MA[0].eth[3].mac packetReceivedFromUpper:vector(packetBytes) ETV
attr interpolationmode none
attr source packetReceivedFromUpper
attr title "packet bytes from higher layer, vector(packetBytes)"
vector 41 TestPmipv6.MA[0].eth[3].mac txPk:vector(packetBytes) ETV
attr interpolationmode none
attr source packetSentToLower
attr title "packets transmitted, vector(packetBytes)"
vector 42 TestPmipv6.CN[0].eth[0].mac rxPkOk:vector(packetBytes) ETV
attr interpolationmode none
attr source rxPkOk
attr title "packets received OK, vector(packetBytes)"
vector 43 TestPmipv6.CN[0].eth[0].mac passedUpPk:vector(packetBytes) ETV
attr interpolationmode none
attr source packetSentToUpper
attr title "packets passed to higher layer, vector(packetBytes)"
vector 44 TestPmipv6.CN[0].eth[0].encap decapPk:vector(packetBytes) ETV
attr interpolationmode none
attr source decapPk
attr title "packets decapsulated, vector(packetBytes)"
vector 45 TestPmipv6.rsu[0].eth[0].encap encapPk:vector(packetBytes) ETV
attr interpolationmode none
attr source encapPk
attr title "packets encapsulated, vector(packetBytes)"
vector 46 TestPmipv6.rsu[0].eth[0].queue.dataQueue packetReceived:vector(packetBytes) ETV
attr interpolationmode none
attr title "received packets, vector(packetBytes)"
vector 47 TestPmipv6.rsu[0].eth[0].queue.dataQueue queueingTime:vector ETV
attr interpolationmode none
attr title "queueing time, vector"
vector 48 TestPmipv6.rsu[0].eth[0].mac packetReceivedFromUpper:vector(packetBytes) ETV
attr interpolationmode none
attr source packetReceivedFromUpper
attr title "packet bytes from higher layer, vector(packetBytes)"
vector 49 TestPmipv6.rsu[0].eth[0].mac txPk:vector(packetBytes) ETV
attr interpolationmode none
attr source packetSentToLower
attr title "packets transmitted, vector(packetBytes)"
vector 50 TestPmipv6.MA[0].eth[0].mac rxPkOk:vector(packetBytes) ETV
attr interpolationmode none
attr source rxPkOk
attr title "packets received OK, vector(packetBytes)"
vector 51 TestPmipv6.MA[0].eth[0].mac passedUpPk:vector(packetBytes) ETV
attr interpolationmode none
attr source packetSentToUpper
attr title "packets passed to higher layer, vector(packetBytes)"
vector 52 TestPmipv6.MA[0].eth[0].encap decapPk:vector(packetBytes) ETV
attr interpolationmode none
attr source decapPk
attr title "packets decapsulated, vector(packetBytes)"
vector 53 TestPmipv6.CN[0].app[0] pingTxSeq:vector ETV
attr interpolationmode none
attr title "ping tx seq, vector"
vector 54 TestPmipv6.MA[0].eth[2].encap encapPk:vector(packetBytes) ETV
attr interpolationmode none
attr source encapPk
attr title "packets encapsulated, vector(packetBytes)"
vector 55 TestPmipv6.MA[0].eth[2].queue.dataQueue packetReceived:vector(packetBytes) ETV
attr interpolationmode none
attr title "received packets, vector(packetBytes)"
vector 56 TestPmipv6.MA[0].eth[2].queue.dataQueue queueingTime:vector ETV
attr interpolationmode none
attr title "queueing time, vector"
vector 57 TestPmipv6.MA[0].eth[2].mac packetReceivedFromUpper:vector(packetBytes) ETV
attr interpolationmode none
attr source packetReceivedFromUpper
attr title "packet bytes from higher layer, vector(packetBytes)"
vector 58 TestPmipv6.MA[0].eth[2].mac txPk:vector(packetBytes) ETV
attr interpolationmode none
attr source packetSentToLower
attr title "packets transmitted, vector(packetBytes)"
vector 59 TestPmipv6.rsu[2].eth[0].mac rxPkOk:vector(packetBytes) ETV
attr interpolationmode none
attr source rxPkOk
attr title "packets received OK, vector(packetBytes)"
vector 60 TestPmipv6.rsu[2].eth[0].mac passedUpPk:vector(packetBytes) ETV
attr interpolationmode none
attr source packetSentToUpper
attr title "packets passed to higher layer, vector(packetBytes)"
vector 61 TestPmipv6.rsu[2].eth[0].encap decapPk:vector(packetBytes) ETV
attr interpolationmode none
attr source decapPk
attr title "packets decapsulated, vector(packetBytes)"
28	16	1.5	2.1330162602068
28	184	2	1.9479369898298
28	186	2.5	1.9375253296788
28	187	3	0.973
28	188	3.5	0.973
28	189	4	0.973
28	190	4.5	0.973
28	192	5	0.973
28	217	5.5	0.973
28	218	6	0.973
28	231	6.5	0.973
28	232	7	4.2889716016465
28	245	7.5	5.0736893859731
28	246	8	4.2271620201819
28	248	8.5	5.0415139577496
28	249	9	5.6961565102129
28	250	9.5	6.5188588234991
28	252	10	7.0344070643854
28	276	10.5	7.7498354863986
28	277	11	7.5725546494483
28	290	11.5	7.9638742131039
28	291	12	3.4559996737572
28	304	12.5	1.6464635234152
28	305	13	2.4402668027873
28	307	13.5	0.973
28	308	14	0.973
28	309	14.5	0.973
28	311	15	0.973
28	335	15.5	0.973
28	336	16	0.973
28	349	16.5	0.973
28	350	17	0.973
28	363	17.5	2.9602408828388
28	364	18	4.8780635088978
28	366	18.5	4.7074125757078
28	405	19	4.9991341479676
28	406	19.5	5.8944829399788
28	408	20	6.8994949872762
28	432	20.5	6.8550828039009
28	433	21	7.1707061697066
28	446	21.5	7.2233887984467
28	447	22	7.6255185515285
28	460	22.5	4.3720218943115
28	461	23	2.1590799490319
28	463	23.5	2.5138797260803
28	464	24	1.6355635194991
28	465	24.5	0.973
28	467	25	0.973
28	491	25.5	0.973
28	492	26	0.973
28	505	26.5	0.973
28	506	27	0.973
28	519	27.5	0.973
28	520	28	2.941257189527
28	522	28.5	5.0147873901899
28	523	29	4.2032889405618
28	524	29.5	5.4231009193795
28	526	30	5.0757674226012
28	550	30.5	5.9130694455034
28	551	31	7.2998864360008
28	564	31.5	6.2773425847744
28	565	32	8.7819383599779
28	578	32.5	7.936990217253
28	579	33	4.1777511760787
28	581	33.5	2.1993916962433
28	582	34	2.5407111838633
28	583	34.5	1.8778340670246
28	585	35	0.973
28	609	35.5	0.973
28	610	36	0.973
28	623	36.5	0.973
28	639	37	0.973
28	652	37.5	0.973
28	653	38	0.973
28	655	38.5	2.0129523758179
28	656	39	4.7746066357449
28	657	39.5	4.5037082731838
28	675	40	5.8468374022219
28	699	40.5	5.0922561163985
28	700	41	6.5765887022504
28	713	41.5	6.4215868318299
28	714	42	6.645937607444
28	727	42.5	7.3735050870133
28	728	43	8.6524213684937
28	730	43.5	5.0469296691231
28	731	44	2.0799093712264
28	732	44.5	2.4738903773256
28	734	45	2.1346975341625
28	758	45.5	0.973
28	759	46	0.973
28	772	46.5	0.973
28	773	47	0.973
28	786	47.5	0.973
28	787	48	0.973
28	789	48.5	0.973
28	790	49	2.1624768100968
28	791	49.5	4.8669523590187
28	793	50	5.2466725380393
28	817	50.5	5.3169935162689
28	818	51	5.2207880947672
28	831	51.5	6.268463709647
28	832	52	7.00131375303
28	845	52.5	8.1843335946401
28	846	53	8.1754315003978
28	848	53.5	7.4648931770318
28	850	54	3.4972224259394
28	851	54.5	1.9149231571664
28	853	55	2.3498790512196
28	877	55.5	1.5997946528646
28	878	56	0.973
28	891	56.5	0.973
28	892	57	0.973
28	905	57.5	0.973
28	907	58	0.973
28	909	58.5	0.973
28	991	59	0.973
28	992	59.5	2.1072789810253
28	994	60	4.7711766380632
28	1018	60.5	4.462190106006
28	1019	61	5.4869037693555
28	1032	61.5	5.6161479261431
28	1033	62	6.5822643877004
28	1046	62.5	6.5693886659631
28	1047	63	7.7811657294345
28	1049	63.5	7.6578946579875
28	1050	64	7.5556193165181
28	1051	64.5	4.8091076512505
28	1053	65	2.3103563548695
28	1077	65.5	1.8657480300012
28	1078	66	2.0763189875091
28	1091	66.5	0.973
28	1092	67	0.973
28	1105	67.5	0.973
28	1106	68	0.973
28	1108	68.5	0.973
28	1109	69	0.973
28	1110	69.5	0.973
28	1112	70	2.1464996608082
28	1136	70.5	4.8077639312988
28	1137	71	4.8201725286787
28	1150	71.5	5.1498965667458
28	1151	72	5.9078290924444
28	1164	72.5	6.5042478068317
28	1165	73	6.4288088784026
28	1167	73.5	6.871391952555
28	1168	74	7.7226935262763
28	1169	74.5	8.0122933465555
28	1171	75	5.2552641213938
28	1196	75.5	0.973
28	1197	76	0.973
28	1210	76.5	0.973
28	1211	77	0.973
28	1224	77.5	0.973
28	1225	78	0.973
28	1227	78.5	0.973
28	1269	79	0.973
28	1270	79.5	0.973
28	1272	80	0.973
28	1296	80.5	0.973
28	1297	81	0.973
28	1310	81.5	0.973
28	1352	82	0.973
28	1365	82.5	0.973
28	1366	83	0.973
28	1368	83.5	0.973
28	1369	84	0.973
28	1370	84.5	0.973
28	1413	85	0.973
28	1437	85.5	0.973
28	1438	86	0.973
28	1451	86.5	0.973
28	1452	87	0.973
28	1465	87.5	0.973
28	1507	88	0.973
28	1509	88.5	0.973
28	1510	89	0.973
28	1511	89.5	0.973
28	1513	90	0.973
28	1537	90.5	0.973
28	1579	91	0.973
28	1592	91.5	0.973
28	1593	92	0.973
28	1606	92.5	0.973
28	1607	93	0.973
28	1609	93.5	0.973
28	1651	94	0.973
28	1652	94.5	0.973
28	1654	95	0.973
28	1678	95.5	0.973
28	1679	96	0.973
28	1692	96.5	0.973
28	1734	97	0.973
28	1747	97.5	0.973
28	1748	98	0.973
28	1750	98.5	0.973
28	1751	99	0.973
28	1752	99.5	0.973
28	1795	100	0.973
28	1819	100.5	0.973
28	1820	101	0.973
28	1833	101.5	0.973
28	1834	102	0.973
28	1847	102.5	0.973
28	1889	103	0.973
28	1891	103.5	0.973
28	1892	104	0.973
28	1893	104.5	0.973
28	1895	105	0.973
28	1919	105.5	0.973
28	1961	106	0.973
28	1974	106.5	0.973
28	1975	107	0.973
28	1988	107.5	0.973
28	1989	108	0.973
28	1991	108.5	0.973
28	2033	109	0.973
28	2034	109.5	0.973
28	2036	110	0.973
28	2060	110.5	0.973
28	2061	111	0.973
28	2074	111.5	0.973
28	2116	112	0.973
28	2129	112.5	0.973
28	2130	113	0.973
28	2132	113.5	0.973
28	2134	114	0.973
28	2135	114.5	0.973
28	2178	115	0.973
28	2202	115.5	0.973
28	2203	116	0.973
28	2216	116.5	0.973
28	2218	117	0.973
28	2231	117.5	0.973
28	2273	118	0.973
28	2275	118.5	0.973
28	2276	119	0.973
28	2277	119.5	0.973
28	2280	120	0.973
28	2304	120.5	0.973
28	2346	121	0.973
28	2359	121.5	0.973
28	2360	122	0.973
28	2373	122.5	0.973
28	2375	123	0.973
28	2377	123.5	0.973
28	2419	124	0.973
28	2420	124.5	0.973
28	2422	125	0.973
28	2447	125.5	1.8500693540546
28	2449	126	2.5536736096571
28	2462	126.5	3.2057799413102
28	2504	127	3.3125618732546
28	2517	127.5	4.1237045483771
28	2518	128	4.2555561532255
28	2520	128.5	4.5013690459845
28	2522	129	4.878888594502
28	2523	129.5	0.973
28	2566	130	0.973
28	2590	130.5	0.973
28	2591	131	0.973
28	2604	131.5	2.2606538048851
28	2606	132	4.7745772358049
28	2619	132.5	4.9576252885239
28	2661	133	5.4525561835976
28	2663	133.5	6.2330930687293
28	2664	134	5.9039646446148
28	2665	134.5	7.3722473368593
28	2668	135	7.0775988474142
28	2692	135.5	7.1599987772979
28	2709	136	8.6052790015718
28	2722	136.5	3.7563007482796
28	2723	137	2.5512686550556
28	2736	137.5	1.5379547156747
28	2738	138	2.5150760602464
28	2740	138.5	0.973
28	2757	139	0.973
28	2758	139.5	0.973
28	2760	140	0.973
28	2784	140.5	0.973
28	2786	141	0.973
28	2799	141.5	0.973
28	2800	142	1.9244241784421
28	2813	142.5	4.7457231495383
28	2814	143	4.470033721252
28	2816	143.5	5.1552119487905
28	2818	144	5.7743366465754
28	2819	144.5	5.9558946149444
28	2821	145	7.109623224887
28	2845	145.5	6.53961103467
28	2846	146	6.7254661753554
28	2859	146.5	8.3605231709962
28	2861	147	6.4734723854305
28	2874	147.5	2.3726695530729
28	2875	148	1.9711973811182
28	2877	148.5	1.5103822758782
28	2878	149	0.973
28	2879	149.5	0.973
28	2882	150	0.973
28	2906	150.5	0.973
28	2907	151	0.973
28	2920	151.5	0.973
28	2921	152	0.973
28	2934	152.5	0.973
28	2936	153	4.5570999368079
28	2938	153.5	4.3651620391069
28	2939	154	4.5025514433834
28	2940	154.5	5.3542151910312
28	2942	155	5.6125773462377
28	2966	155.5	6.5689429201611
28	2968	156	6.614026008493
28	2981	156.5	7.577189921819
28	2983	157	7.8991422457104
28	3069	157.5	8.5406958597402
28	3070	158	2.4475877267255
28	3072	158.5	1.8705731282262
28	3074	159	1.4180976480009
28	3075	159.5	2.0535168182906
28	3077	160	2.4093297210729
28	3101	160.5	1.63223117298
28	3102	161	2.1187795366577
28	3115	161.5	2.3280588397639
27	16	1.5	0.03279124979861
27	184	2	-0.022335798176936
27	186	2.5	-0.0250992690213
27	187	3	-0.49473489965646
27	188	3.5	-3.4833201416324
27	189	4	-3.3987959993869
27	190	4.5	-3.0985273793831
27	192	5	-2.7670877326174
27	217	5.5	-2.8575182115278
27	218	6	-2.4650159362234
27	231	6.5	-2.2947589355774
27	232	7	2.6
27	245	7.5	2.5421964397654
27	246	8	1.6817866464844
27	248	8.5	1.8819055100717
27	249	9	1.9516346737323
27	250	9.5	2.0635622217879
27	252	10	2.0366886209836
27	276	10.5	2.0782983011473
27	277	11	1.8431309037842
27	290	11.5	1.8130770818936
27	291	12	0.42872224802511
27	304	12.5	-0.111884950893
27	305	13	0.12432419104502
27	307	13.5	-0.38829163324698
27	308	14	-3.4241633648346
27	309	14.5	-3.3780357026356
27	311	15	-3.1984507291124
27	335	15.5	-3.0337117482322
27	336	16	-2.5341245481312
27	349	16.5	-2.7194785878367
27	350	17	-2.1250379393882
27	363	17.5	1.5950253373846
27	364	18	2.6
27	366	18.5	2.0499968642089
27	405	19	1.9172162329918
27	406	19.5	2.0838800588809
27	408	20	2.2389921795065
27	432	20.5	1.9844182913378
27	433	21	1.9063459476363
27	446	21.5	1.7637249184586
27	447	22	1.7475749063818
27	460	22.5	0.71080248915683
27	461	23	0.042841007104141
27	463	23.5	0.146640401599
27	464	24	-0.11511118228081
27	465	24.5	-3.2067414688729
27	467	25	-3.2735149172551
27	491	25.5	-3.1759065985591
27	492	26	-2.9515504495204
27	505	26.5	-2.9488933666344
27	506	27	-2.486294506277
27	519	27.5	-2.1303745098792
27	520	28	1.4958951667389
27	522	28.5	2.6
27	523	29	1.7216249873396
27	524	29.5	2.1089553555381
27	526	30	1.7019257459277
27	550	30.5	1.8717603778047
27	551	31	2.1899707831442
27	564	31.5	1.6352158620069
27	565	32	2.28315203954
27	578	32.5	1.8390027422365
27	579	33	0.65219537736996
27	581	33.5	0.054758551679551
27	582	34	0.15425332530867
27	583	34.5	-0.043512414121068
27	585	35	-3.1749943290803
27	609	35.5	-3.3469278221614
27	610	36	-2.9250720652852
27	623	36.5	-3.0126660554823
27	639	37	-3.0383034780189
27	652	37.5	-2.5442770704297
27	653	38	-2.1351342748125
27	655	38.5	0.70526073586341
27	656	39	2.6
27	657	39.5	1.9841497493675
27	675	40	2.3689857942937
27	699	40.5	1.7281196354516
27	700	41	2.1470303557021
27	713	41.5	1.8658414168144
27	714	42	1.7755207663076
27	727	42.5	1.8596643856075
27	728	43	2.0824205750274
27	730	43.5	0.91336731702664
27	731	44	0.019077895097436
27	732	44.5	0.13498894165736
27	734	45	0.032818312100133
27	758	45.5	-2.691320236991
27	759	46	-3.3916172096734
27	772	46.5	-3.2517134074067
27	773	47	-2.8337368297162
27	786	47.5	-2.9543161308489
27	787	48	-2.5975211520639
27	789	48.5	-2.3433859493742
27	790	49	0.82197783835493
27	791	49.5	2.6
27	793	50	2.3392905431613
27	817	50.5	2.0349130427651
27	818	51	1.7531022566883
27	831	51.5	1.9931564703211
27	832	52	2.0557337708445
27	845	52.5	2.2442317647068
27	846	53	2.0330011522584
27	848	53.5	1.6671862146072
27	850	54	0.44302003329532
27	851	54.5	-0.031420445870605
27	853	55	0.097441197540611
27	877	55.5	-0.12580347700045
27	878	56	-3.1339599578887
27	891	56.5	-3.1249387251581
27	892	57	-3.209475232197
27	905	57.5	-3.1627629491849
27	907	58	-2.7164388691826
27	909	58.5	-2.5199988742197
27	991	59	-2.3184450356098
27	992	59.5	0.80177025042136
27	994	60	2.6
27	1018	60.5	1.9626758666523
27	1019	61	2.204067448019
27	1032	61.5	1.9782191523351
27	1033	62	2.1431103017973
27	1046	62.5	1.9140068752179
27	1047	63	2.140006058556
27	1049	63.5	1.9082405328471
27	1050	64	1.7280639384873
27	1051	64.5	0.83800197614504
27	1053	65	0.085752424136736
27	1077	65.5	-0.046773264575751
27	1078	66	0.016142975678669
27	1091	66.5	-2.7211067702744
27	1092	67	-3.5038524086809
27	1105	67.5	-3.0231788570699
27	1106	68	-3.0545186074791
27	1108	68.5	-2.9595293760476
27	1109	69	-2.5911079695126
27	1110	69.5	-2.3388390487397
27	1112	70	0.8277537791221
27	1136	70.5	2.6
27	1137	71	2.1417523768963
27	1150	71.5	2.0042088033725
27	1151	72	2.0928334352374
27	1164	72.5	2.0905768945813
27	1165	73	1.8497534433892
27	1167	73.5	1.8347542812536
27	1168	74	1.9466563805332
27	1169	74.5	1.8727788553806
27	1171	75	0.96744052422701
27	1196	75.5	-4.5
27	1197	76	-4.5
27	1210	76.5	-4.5
27	1211	77	-4.5
27	1224	77.5	-4.5
27	1225	78	-4.5
27	1227	78.5	-0.71519472883308
27	1269	79	0
27	1270	79.5	0
27	1272	80	0
27	1296	80.5	0
27	1297	81	0
27	1310	81.5	0
27	1352	82	0
27	1365	82.5	0
27	1366	83	0
27	1368	83.5	0
27	1369	84	0
27	1370	84.5	0
27	1413	85	0
27	1437	85.5	0
27	1438	86	0
27	1451	86.5	0
27	1452	87	0
27	1465	87.5	0
27	1507	88	0
27	1509	88.5	0
27	1510	89	0
27	1511	89.5	0
27	1513	90	0
27	1537	90.5	0
27	1579	91	0
27	1592	91.5	0
27	1593	92	0
27	1606	92.5	0
27	1607	93	0
27	1609	93.5	0
27	1651	94	0
27	1652	94.5	0
27	1654	95	0
27	1678	95.5	0
27	1679	96	0
27	1692	96.5	0
27	1734	97	0
27	1747	97.5	0
27	1748	98	0
27	1750	98.5	0
27	1751	99	0
27	1752	99.5	0
27	1795	100	0
27	1819	100.5	0
27	1820	101	0
27	1833	101.5	0
27	1834	102	0
27	1847	102.5	0
27	1889	103	0
27	1891	103.5	0
27	1892	104	0
27	1893	104.5	0
27	1895	105	0
27	1919	105.5	0
27	1961	106	0
27	1974	106.5	0
27	1975	107	0
27	1988	107.5	0
27	1989	108	0
27	1991	108.5	0
27	2033	109	0
27	2034	109.5	0
27	2036	110	0
27	2060	110.5	0
27	2061	111	0
27	2074	111.5	0
27	2116	112	0
27	2129	112.5	0
27	2130	113	0
27	2132	113.5	0
27	2134	114	0
27	2135	114.5	0
27	2178	115	0
27	2202	115.5	0
27	2203	116	0
27	2216	116.5	0
27	2218	117	0
27	2231	117.5	0
27	2273	118	0
27	2275	118.5	0
27	2276	119	0
27	2277	119.5	0
27	2280	120	0
27	2304	120.5	0
27	2346	121	0
27	2359	121.5	0
27	2360	122	0
27	2373	122.5	0
27	2375	123	0
27	2377	123.5	0
27	2419	124	0
27	2420	124.5	0
27	2422	125	0
27	2447	125.5	2.3799128277443
27	2449	126	2.3374195218781
27	2462	126.5	2.2805254225386
27	2504	127	1.8566411387641
27	2517	127.5	2.0763942882465
27	2518	128	1.8298880056245
27	2520	128.5	1.7228943154309
27	2522	129	1.706563244937
27	2523	129.5	-1.0963448587384
27	2566	130	-2.777008676346
27	2590	130.5	-2.641069988028
27	2591	131	-2.4139801744316
27	2604	131.5	0.95542834544212
27	2606	132	2.6
27	2619	132.5	2.2306855363725
27	2661	133	2.1490752770845
27	2663	133.5	2.2128149746638
27	2664	134	1.8319354264159
27	2665	134.5	2.1816483620368
27	2668	135	1.8735750524513
27	2692	135.5	1.7446957242442
27	2709	136	2.0274874048075
27	2722	136.5	0.52279775672372
27	2723	137	0.15707711231429
27	2736	137.5	-0.14453224991448
27	2738	138	0.14621868940536
27	2740	138.5	-3.0095652619138
27	2757	139	-3.442893527049
27	2758	139.5	-3.1270000036211
27	2760	140	-3.1311070916861
27	2784	140.5	-2.6693269176386
27	2786	141	-2.5620504651422
27	2799	141.5	-2.3005855538441
27	2800	142	0.62454320072588
27	2813	142.5	2.6
27	2814	143	1.9780780727183
27	2816	143.5	2.0527932101395
27	2818	144	2.0718731055269
27	2819	144.5	1.9113143095467
27	2821	145	2.1416096596001
27	2845	145.5	1.7418515199702
27	2846	146	1.6616733452305
27	2859	146.5	2.0202707880409
27	2861	147	1.3364268525327
27	2874	147.5	0.10360399692319
27	2875	148	-0.016211494160817
27	2877	148.5	-0.15261768336408
27	2878	149	-2.4033731324622
27	2879	149.5	-3.4293690455173
27	2882	150	-3.0660912203538
27	2906	150.5	-3.0133222716789
27	2907	151	-2.8014481961864
27	2920	151.5	-2.6631052191768
27	2921	152	-2.3242523666214
27	2934	152.5	-0.30251349925227
27	2936	153	2.6
27	2938	153.5	2.0029622636829
27	2939	154	1.7952490726113
27	2940	154.5	1.9822414122615
27	2942	155	1.8655309512652
27	2966	155.5	2.0421659814753
27	2968	156	1.857076269784
27	2981	156.5	2.0073026890308
27	2983	157	1.9320210468862
27	3069	157.5	1.9590633995086
27	3070	158	0.12605871902561
27	3072	158.5	-0.045881790732963
27	3074	159	-0.17986741199158
27	3075	159.5	0.011538496254946
27	3077	160	0.11650898948777
27	3101	160.5	-0.11544234326109
27	3102	161	0.030689771356993
27	3115	161.5	0.091984466859142
26	14	1	13.833724876417
26	16	1.5	13.850120501317
26	184	2	13.838952602228
26	186	2.5	13.826402967718
26	187	3	13.579035517889
26	188	3.5	11.837375447073
26	189	4	10.13797744738
26	190	4.5	8.5887137576882
26	192	5	7.2051698913795
26	217	5.5	5.7764107856156
26	218	6	4.5439028175039
26	231	6.5	3.3965233497152
26	232	7	4.6965233497152
26	245	7.5	5.9676215695979
26	246	8	6.8085148928401
26	248	8.5	7.7494676478759
26	249	9	8.7252849847421
26	250	9.5	9.757066095636
26	252	10	10.775410406128
26	276	10.5	11.814559556701
26	277	11	12.736125008594
26	290	11.5	13.64266354954
26	291	12	13.857024673553
26	304	12.5	13.801082198106
26	305	13	13.863244293629
26	307	13.5	13.669098477005
26	308	14	11.957016794588
26	309	14.5	10.26799894327
26	311	15	8.6687735787141
26	335	15.5	7.151917704598
26	336	16	5.8848554305324
26	349	16.5	4.5251161366141
26	350	17	3.46259716692
26	363	17.5	4.2601098356123
26	364	18	5.5601098356123
26	366	18.5	6.5851082677168
26	405	19	7.5437163842127
26	406	19.5	8.5856564136531
26	408	20	9.7051525034064
26	432	20.5	10.697361649075
26	433	21	11.650534622893
26	446	21.5	12.532397082123
26	447	22	13.406184535314
26	460	22.5	13.761585779892
26	461	23	13.783006283444
26	463	23.5	13.856326484244
26	464	24	13.798770893103
26	465	24.5	12.195400158667
26	467	25	10.558642700039
26	491	25.5	8.9706894007596
26	492	26	7.4949141759994
26	505	26.5	6.0204674926822
26	506	27	4.7773202395437
26	519	27.5	3.7121329846041
26	520	28	4.4600805679736
26	522	28.5	5.7600805679736
26	523	29	6.6208930616434
26	524	29.5	7.6753707394124
26	526	30	8.5263336123763
26	550	30.5	9.4622138012787
26	551	31	10.557199192851
26	564	31.5	11.374807123854
26	565	32	12.516383143624
26	578	32.5	13.435884514742
26	579	33	13.761982203427
26	581	33.5	13.789361479267
26	582	34	13.866488141922
26	583	34.5	13.844731934861
26	585	35	12.257234770321
26	609	35.5	10.58377085924
26	610	36	9.1212348265975
26	623	36.5	7.6149017988564
26	639	37	6.0957500598469
26	652	37.5	4.8236115246321
26	653	38	3.7560443872258
26	655	38.5	4.1086747551576
26	656	39	5.4086747551576
26	657	39.5	6.4007496298413
26	675	40	7.5852425269881
26	699	40.5	8.4493023447139
26	700	41	9.522817522565
26	713	41.5	10.455738230972
26	714	42	11.343498614126
26	727	42.5	12.27333080693
26	728	43	13.314541094443
26	730	43.5	13.771224752957
26	731	44	13.780763700505
26	732	44.5	13.848258171334
26	734	45	13.864667327384
26	758	45.5	12.519007208889
26	759	46	10.823198604052
26	772	46.5	9.1973419003486
26	773	47	7.7804734854906
26	786	47.5	6.3033154200661
26	787	48	5.0045548440342
26	789	48.5	3.8328618693471
26	790	49	4.2438507885245
26	791	49.5	5.5438507885245
26	793	50	6.7134960601052
26	817	50.5	7.7309525814878
26	818	51	8.6075037098319
26	831	51.5	9.6040819449925
26	832	52	10.631948830415
26	845	52.5	11.754064712768
26	846	53	12.770565288897
26	848	53.5	13.604158396201
26	850	54	13.825668412849
26	851	54.5	13.809958189913
26	853	55	13.858678788684
26	877	55.5	13.795777050183
26	878	56	12.228797071239
26	891	56.5	10.66632770866
26	892	57	9.0615900925614
26	905	57.5	7.480208617969
26	907	58	6.1219891833777
26	909	58.5	4.8619897462679
26	991	59	3.702767228463
26	992	59.5	4.1036523536736
26	994	60	5.4036523536736
26	1018	60.5	6.3849902869998
26	1019	61	7.4870240110093
26	1032	61.5	8.4761335871768
26	1033	62	9.5476887380755
26	1046	62.5	10.504692175684
26	1047	63	11.574695204962
26	1049	63.5	12.528815471386
26	1050	64	13.39284744063
26	1051	64.5	13.811848428702
26	1053	65	13.854724640771
26	1077	65.5	13.831338008483
26	1078	66	13.839409496322
26	1091	66.5	12.478856111185
26	1092	67	10.726929906844
26	1105	67.5	9.2153404783094
26	1106	68	7.6880811745699
26	1108	68.5	6.2083164865461
26	1109	69	4.9127625017898
26	1110	69.5	3.7433429774199
26	1112	70	4.157219866981
26	1136	70.5	5.457219866981
26	1137	71	6.5280960554291
26	1150	71.5	7.5302004571154
26	1151	72	8.5766171747341
26	1164	72.5	9.6219056220247
26	1165	73	10.546782343719
26	1167	73.5	11.464159484346
26	1168	74	12.437487674613
26	1169	74.5	13.373877102303
26	1171	75	13.857597364417
26	1196	75.5	11.607597364417
26	1197	76	9.3575973644165
26	1210	76.5	7.1075973644165
26	1211	77	4.8575973644165
26	1224	77.5	2.6075973644165
26	1225	78	0.35759736441654
26	1227	78.5	0
26	1269	79	0
26	1270	79.5	0
26	1272	80	0
26	1296	80.5	0
26	1297	81	0
26	1310	81.5	0
26	1352	82	0
26	1365	82.5	0
26	1366	83	0
26	1368	83.5	0
26	1369	84	0
26	1370	84.5	0
26	1413	85	0
26	1437	85.5	0
26	1438	86	0
26	1451	86.5	0
26	1452	87	0
26	1465	87.5	0
26	1507	88	0
26	1509	88.5	0
26	1510	89	0
26	1511	89.5	0
26	1513	90	0
26	1537	90.5	0
26	1579	91	0
26	1592	91.5	0
26	1593	92	0
26	1606	92.5	0
26	1607	93	0
26	1609	93.5	0
26	1651	94	0
26	1652	94.5	0
26	1654	95	0
26	1678	95.5	0
26	1679	96	0
26	1692	96.5	0
26	1734	97	0
26	1747	97.5	0
26	1748	98	0
26	1750	98.5	0
26	1751	99	0
26	1752	99.5	0
26	1795	100	0
26	1819	100.5	0
26	1820	101	0
26	1833	101.5	0
26	1834	102	0
26	1847	102.5	0
26	1889	103	0
26	1891	103.5	0
26	1892	104	0
26	1893	104.5	0
26	1895	105	0
26	1919	105.5	0
26	1961	106	0
26	1974	106.5	0
26	1975	107	0
26	1988	107.5	0
26	1989	108	0
26	1991	108.5	0
26	2033	109	0
26	2034	109.5	0
26	2036	110	0
26	2060	110.5	0
26	2061	111	0
26	2074	111.5	0
26	2116	112	0
26	2129	112.5	0
26	2130	113	0
26	2132	113.5	0
26	2134	114	0
26	2135	114.5	0
26	2178	115	0
26	2202	115.5	0
26	2203	116	0
26	2216	116.5	0
26	2218	117	0
26	2231	117.5	0
26	2273	118	0
26	2275	118.5	0
26	2276	119	0
26	2277	119.5	0
26	2280	120	0
26	2304	120.5	0
26	2346	121	0
26	2359	121.5	0
26	2360	122	0
26	2373	122.5	0
26	2375	123	0
26	2377	123.5	0
26	2419	124	0
26	2420	124.5	0
26	2422	125	0
26	2447	125.5	1.1899564138722
26	2449	126	2.3586661748112
26	2462	126.5	3.4989288860805
26	2504	127	4.4272494554626
26	2517	127.5	5.4654465995858
26	2518	128	6.3803906023981
26	2520	128.5	7.2418377601135
26	2522	129	8.095119382582
26	2523	129.5	7.5469469532128
26	2566	130	6.1584426150398
26	2590	130.5	4.8379076210258
26	2591	131	3.63091753381
26	2604	131.5	4.1086317065311
26	2606	132	5.4086317065311
26	2619	132.5	6.5239744747173
26	2661	133	7.5985121132595
26	2663	133.5	8.7049196005914
26	2664	134	9.6208873137994
26	2665	134.5	10.711711494818
26	2668	135	11.648499021043
26	2692	135.5	12.520846883166
26	2709	136	13.534590585569
26	2722	136.5	13.795989463931
26	2723	137	13.874528020088
26	2736	137.5	13.802261895131
26	2738	138	13.875371239834
26	2740	138.5	12.370588608877
26	2757	139	10.649141845352
26	2758	139.5	9.0856418435418
26	2760	140	7.5200882976987
26	2784	140.5	6.1854248388794
26	2786	141	4.9043996063083
26	2799	141.5	3.7541068293863
26	2800	142	4.0663784297492
26	2813	142.5	5.3663784297492
26	2814	143	6.3554174661084
26	2816	143.5	7.3818140711781
26	2818	144	8.4177506239416
26	2819	144.5	9.373407778715
26	2821	145	10.444212608515
26	2845	145.5	11.3151383685
26	2846	146	12.145975041115
26	2859	146.5	13.156110435136
26	2861	147	13.824323861402
26	2874	147.5	13.876125859864
26	2875	148	13.868020112783
26	2877	148.5	13.791711271101
26	2878	149	12.59002470487
26	2879	149.5	10.875340182112
26	2882	150	9.3422945719346
26	2906	150.5	7.8356334360952
26	2907	151	6.434909338002
26	2920	151.5	5.1033567284136
26	2921	152	3.9412305451029
26	2934	152.5	3.7899737954767
26	2936	153	5.0899737954767
26	2938	153.5	6.0914549273181
26	2939	154	6.9890794636238
26	2940	154.5	7.9802001697546
26	2942	155	8.9129656453872
26	2966	155.5	9.9340486361248
26	2968	156	10.862586771017
26	2981	156.5	11.866238115532
26	2983	157	12.832248638975
26	3069	157.5	13.81178033873
26	3070	158	13.874809698242
26	3072	158.5	13.851868802876
26	3074	159	13.76193509688
26	3075	159.5	13.767704345008
26	3077	160	13.825958839752
26	3101	160.5	13.768237668121
26	3102	161	13.783582553799
26	3115	161.5	13.829574787229
25	12	0.5	233.25
25	14	1	233.25
25	16	1.5	233.25
25	184	2	233.25
25	186	2.5	233.25
25	187	3	233.25
25	188	3.5	233.25
25	189	4	233.25
25	190	4.5	233.25
25	192	5	233.25
25	217	5.5	233.25
25	218	6	233.25
25	231	6.5	233.25
25	232	7	233.25
25	245	7.5	233.25
25	246	8	233.25
25	248	8.5	233.25
25	249	9	233.25
25	250	9.5	233.25
25	252	10	233.25
25	276	10.5	233.25
25	277	11	233.25
25	290	11.5	233.25
25	291	12	233.25
25	304	12.5	233.25
25	305	13	233.25
25	307	13.5	233.25
25	308	14	233.25
25	309	14.5	233.25
25	311	15	233.25
25	335	15.5	233.25
25	336	16	233.25
25	349	16.5	233.25
25	350	17	233.25
25	363	17.5	233.25
25	364	18	233.25
25	366	18.5	233.25
25	405	19	233.25
25	406	19.5	233.25
25	408	20	233.25
25	432	20.5	233.25
25	433	21	233.25
25	446	21.5	233.25
25	447	22	233.25
25	460	22.5	233.25
25	461	23	233.25
25	463	23.5	233.25
25	464	24	233.25
25	465	24.5	233.25
25	467	25	233.25
25	491	25.5	233.25
25	492	26	233.25
25	505	26.5	233.25
25	506	27	233.25
25	519	27.5	233.25
25	520	28	233.25
25	522	28.5	233.25
25	523	29	233.25
25	524	29.5	233.25
25	526	30	233.25
25	550	30.5	233.25
25	551	31	233.25
25	564	31.5	233.25
25	565	32	233.25
25	578	32.5	233.25
25	579	33	233.25
25	581	33.5	233.25
25	582	34	233.25
25	583	34.5	233.25
25	585	35	233.25
25	609	35.5	233.25
25	610	36	233.25
25	623	36.5	233.25
25	639	37	233.25
25	652	37.5	233.25
25	653	38	233.25
25	655	38.5	233.25
25	656	39	233.25
25	657	39.5	233.25
25	675	40	233.25
25	699	40.5	233.25
25	700	41	233.25
25	713	41.5	233.25
25	714	42	233.25
25	727	42.5	233.25
25	728	43	233.25
25	730	43.5	233.25
25	731	44	233.25
25	732	44.5	233.25
25	734	45	233.25
25	758	45.5	233.25
25	759	46	233.25
25	772	46.5	233.25
25	773	47	233.25
25	786	47.5	233.25
25	787	48	233.25
25	789	48.5	233.25
25	790	49	233.25
25	791	49.5	233.25
25	793	50	233.25
25	817	50.5	233.25
25	818	51	233.25
25	831	51.5	233.25
25	832	52	233.25
25	845	52.5	233.25
25	846	53	233.25
25	848	53.5	233.25
25	850	54	233.25
25	851	54.5	233.25
25	853	55	233.25
25	877	55.5	233.25
25	878	56	233.25
25	891	56.5	233.25
25	892	57	233.25
25	905	57.5	233.25
25	907	58	233.25
25	909	58.5	233.25
25	991	59	233.25
25	992	59.5	233.25
25	994	60	233.25
25	1018	60.5	233.25
25	1019	61	233.25
25	1032	61.5	233.25
25	1033	62	233.25
25	1046	62.5	233.25
25	1047	63	233.25
25	1049	63.5	233.25
25	1050	64	233.25
25	1051	64.5	233.25
25	1053	65	233.25
25	1077	65.5	233.25
25	1078	66	233.25
25	1091	66.5	233.25
25	1092	67	233.25
25	1105	67.5	233.25
25	1106	68	233.25
25	1108	68.5	233.25
25	1109	69	233.25
25	1110	69.5	233.25
25	1112	70	233.25
25	1136	70.5	233.25
25	1137	71	233.25
25	1150	71.5	233.25
25	1151	72	233.25
25	1164	72.5	233.25
25	1165	73	233.25
25	1167	73.5	233.25
25	1168	74	233.25
25	1169	74.5	233.25
25	1171	75	233.25
25	1196	75.5	233.25
25	1197	76	233.25
25	1210	76.5	233.25
25	1211	77	233.25
25	1224	77.5	233.25
25	1225	78	233.25
25	1227	78.5	233.25
25	1269	79	233.25
25	1270	79.5	233.25
25	1272	80	233.25
25	1296	80.5	233.25
25	1297	81	233.25
25	1310	81.5	233.25
25	1352	82	233.25
25	1365	82.5	233.25
25	1366	83	233.25
25	1368	83.5	233.25
25	1369	84	233.25
25	1370	84.5	233.25
25	1413	85	233.25
25	1437	85.5	233.25
25	1438	86	233.25
25	1451	86.5	233.25
25	1452	87	233.25
25	1465	87.5	233.25
25	1507	88	233.25
25	1509	88.5	233.25
25	1510	89	233.25
25	1511	89.5	233.25
25	1513	90	233.25
25	1537	90.5	233.25
25	1579	91	233.25
25	1592	91.5	233.25
25	1593	92	233.25
25	1606	92.5	233.25
25	1607	93	233.25
25	1609	93.5	233.25
25	1651	94	233.25
25	1652	94.5	233.25
25	1654	95	233.25
25	1678	95.5	233.25
25	1679	96	233.25
25	1692	96.5	233.25
25	1734	97	233.25
25	1747	97.5	233.25
25	1748	98	233.25
25	1750	98.5	233.25
25	1751	99	233.25
25	1752	99.5	233.25
25	1795	100	233.25
25	1819	100.5	233.25
25	1820	101	233.25
25	1833	101.5	233.25
25	1834	102	233.25
25	1847	102.5	233.25
25	1889	103	233.25
25	1891	103.5	233.25
25	1892	104	233.25
25	1893	104.5	233.25
25	1895	105	233.25
25	1919	105.5	233.25
25	1961	106	233.25
25	1974	106.5	233.25
25	1975	107	233.25
25	1988	107.5	233.25
25	1989	108	233.25
25	1991	108.5	233.25
25	2033	109	233.25
25	2034	109.5	233.25
25	2036	110	233.25
25	2060	110.5	233.25
25	2061	111	233.25
25	2074	111.5	233.25
25	2116	112	233.25
25	2129	112.5	233.25
25	2130	113	233.25
25	2132	113.5	233.25
25	2134	114	233.25
25	2135	114.5	233.25
25	2178	115	233.25
25	2202	115.5	233.25
25	2203	116	233.25
25	2216	116.5	233.25
25	2218	117	233.25
25	2231	117.5	233.25
25	2273	118	233.25
25	2275	118.5	233.25
25	2276	119	233.25
25	2277	119.5	233.25
25	2280	120	233.25
25	2304	120.5	233.25
25	2346	121	233.25
25	2359	121.5	233.25
25	2360	122	233.25
25	2373	122.5	233.25
25	2375	123	233.25
25	2377	123.5	233.25
25	2419	124	233.25
25	2420	124.5	233.25
25	2422	125	233.25
25	2447	125.5	233.25
25	2449	126	233.25
25	2462	126.5	233.25
25	2504	127	233.25
25	2517	127.5	233.25
25	2518	128	233.25
25	2520	128.5	233.25
25	2522	129	233.25
25	2523	129.5	233.25
25	2566	130	233.25
25	2590	130.5	233.25
25	2591	131	233.25
25	2604	131.5	233.25
25	2606	132	233.25
25	2619	132.5	233.25
25	2661	133	233.25
25	2663	133.5	233.25
25	2664	134	233.25
25	2665	134.5	233.25
25	2668	135	233.25
25	2692	135.5	233.25
25	2709	136	233.25
25	2722	136.5	233.25
25	2723	137	233.25
25	2736	137.5	233.25
25	2738	138	233.25
25	2740	138.5	233.25
25	2757	139	233.25
25	2758	139.5	233.25
25	2760	140	233.25
25	2784	140.5	233.25
25	2786	141	233.25
25	2799	141.5	233.25
25	2800	142	233.25
25	2813	142.5	233.25
25	2814	143	233.25
25	2816	143.5	233.25
25	2818	144	233.25
25	2819	144.5	233.25
25	2821	145	233.25
25	2845	145.5	233.25
25	2846	146	233.25
25	2859	146.5	233.25
25	2861	147	233.25
25	2874	147.5	233.25
25	2875	148	233.25
25	2877	148.5	233.25
25	2878	149	233.25
25	2879	149.5	233.25
25	2882	150	233.25
25	2906	150.5	233.25
25	2907	151	233.25
25	2920	151.5	233.25
25	2921	152	233.25
25	2934	152.5	233.25
25	2936	153	233.25
25	2938	153.5	233.25
25	2939	154	233.25
25	2940	154.5	233.25
25	2942	155	233.25
25	2966	155.5	233.25
25	2968	156	233.25
25	2981	156.5	233.25
25	2983	157	233.25
25	3069	157.5	233.25
25	3070	158	233.25
25	3072	158.5	233.25
25	3074	159	233.25
25	3075	159.5	233.25
25	3077	160	233.25
25	3101	160.5	233.25
25	3102	161	233.25
25	3115	161.5	233.25
24	12	0.5	46.970405528039
24	14	1	46.970405528039
24	16	1.5	53.872211044918
24	184	2	60.785554547563
24	186	2.5	67.696567342317
24	187	3	74.600791739779
24	188	3.5	81.478822729701
24	189	4	87.740848895758
24	190	4.5	93.144344860696
24	192	5	97.748658124781
24	217	5.5	101.61609851632
24	218	6	104.77484860693
24	231	6.5	107.28277254205
24	232	7	109.21170372314
24	245	7.5	111.29996539799
24	246	8	114.03533689484
24	248	8.5	117.2798121438
24	249	9	120.9791255927
24	250	9.5	125.15711901443
24	252	10	129.8156428366
24	276	10.5	135.00392645278
24	277	11	140.70970556007
24	290	11.5	146.86920798373
24	291	12	153.51424201268
24	304	12.5	160.43455178996
24	305	13	167.35417879793
24	307	13.5	174.27145245031
24	308	14	181.1574586859
24	309	14.5	187.44946716722
24	311	15	192.89119953721
24	335	15.5	197.54773160943
24	336	16	201.4581054236
24	349	16.5	204.66181846626
24	350	17	207.18753811749
24	363	17.5	209.14362561282
24	364	18	211.01368053062
24	366	18.5	213.53373544843
24	405	19	216.64050504574
24	406	19.5	220.22726418429
24	408	20	224.32443793994
24	432	20.5	228.95537753917
24	433	21	234.11480470661
24	446	21.5	239.73867251161
24	447	22	245.83234328465
24	460	22.5	252.37385522002
24	461	23	259.24667374709
24	463	23.5	266.15605253149
24	464	24	273.06646189385
24	465	24.5	279.96621762694
24	467	25	286.39908722174
24	491	25.5	291.99950954602
24	492	26	296.80064918432
24	505	26.5	300.83366832784
24	506	27	304.13631431095
24	519	27.5	306.79890066786
24	520	28	308.85050565423
24	522	28.5	310.82054593822
24	523	29	313.44058622221
24	524	29.5	316.57909069319
24	526	30	320.18665913601
24	550	30.5	324.28321702939
24	551	31	328.8155976037
24	564	31.5	333.86975554201
24	565	32	339.38354954563
24	578	32.5	345.39903988332
24	579	33	351.91528635796
24	581	33.5	358.79897597051
24	582	34	365.71893857788
24	583	34.5	372.62491420401
24	585	35	379.54665114198
24	609	35.5	386.05118623196
24	610	36	391.69590587726
24	623	36.5	396.53500182254
24	639	37	400.614720423
24	652	37.5	403.95401988181
24	653	38	406.63442492815
24	655	38.5	408.71072941276
24	656	39	410.5497159624
24	657	39.5	412.99405333998
24	675	40	416.01028776777
24	699	40.5	419.57031661161
24	700	41	423.63985767313
24	713	41.5	428.17640642917
24	714	42	433.21587281519
24	727	42.5	438.72067690664
24	728	43	444.65459538596
24	730	43.5	451.07692119882
24	731	44	457.941272435
24	732	44.5	464.8496195735
24	734	45	471.76368720299
24	758	45.5	478.67470302088
24	759	46	485.25805450296
24	772	46.5	491.00940634191
24	773	47	495.95330265515
24	786	47.5	500.13194694009
24	787	48	503.57474003012
24	789	48.5	506.34969818566
24	790	49	508.49522054336
24	791	49.5	510.40080045569
24	793	50	512.91272584995
24	817	50.5	516.04771549952
24	818	51	519.71484925333
24	831	51.5	523.83838196421
24	832	52	528.46057162501
24	845	52.5	533.56549817215
24	846	53	539.21045960367
24	848	53.5	545.4023294734
24	850	54	552.02777742752
24	851	54.5	558.94592303704
24	853	55	565.84055299042
24	877	55.5	572.75628795917
24	878	56	579.64898181561
24	891	56.5	586.11479803002
24	892	57	591.75337852012
24	905	57.5	596.58496766199
24	907	58	600.63553754429
24	909	58.5	603.98442151414
24	991	59	606.67488128709
24	992	59.5	608.75464706974
24	994	60	610.59467787792
24	1018	60.5	613.03650405476
24	1019	61	616.04035006234
24	1032	61.5	619.56411213478
24	1033	62	623.59136266223
24	1046	62.5	628.13759801875
24	1047	63	633.19952042806
24	1049	63.5	638.79382135166
24	1050	64	644.86816674431
24	1051	64.5	651.39033824308
24	1053	65	658.29363933135
24	1077	65.5	665.21745379399
24	1078	66	672.12851471696
24	1091	66.5	679.03852783007
24	1092	67	685.59357067204
24	1105	67.5	691.30594794201
24	1106	68	696.20494934503
24	1108	68.5	700.34922846029
24	1109	69	703.75176418605
24	1110	69.5	706.4751307203
24	1112	70	708.5987629652
24	1136	70.5	710.46667554929
24	1137	71	712.93528548278
24	1150	71.5	715.99394357728
24	1151	72	719.56365382204
24	1164	72.5	723.66187251864
24	1165	73	728.2839820903
24	1167	73.5	733.39182973895
24	1168	74	738.96453452064
24	1169	74.5	745.00050571542
24	1171	75	751.50165027054
24	1196	75.5	758.38014032664
24	1197	76	764.63393900885
24	1210	76.5	769.76273769105
24	1211	77	773.76653637326
24	1224	77.5	776.64533505547
24	1225	78	778.39913373768
24	1227	78.5	779.02793241989
24	1269	79	779.02793241989
24	1270	79.5	779.02793241989
24	1272	80	779.02793241989
24	1296	80.5	779.02793241989
24	1297	81	779.02793241989
24	1310	81.5	779.02793241989
24	1352	82	779.02793241989
24	1365	82.5	779.02793241989
24	1366	83	779.02793241989
24	1368	83.5	779.02793241989
24	1369	84	779.02793241989
24	1370	84.5	779.02793241989
24	1413	85	779.02793241989
24	1437	85.5	779.02793241989
24	1438	86	779.02793241989
24	1451	86.5	779.02793241989
24	1452	87	779.02793241989
24	1465	87.5	779.02793241989
24	1507	88	779.02793241989
24	1509	88.5	779.02793241989
24	1510	89	779.02793241989
24	1511	89.5	779.02793241989
24	1513	90	779.02793241989
24	1537	90.5	779.02793241989
24	1579	91	779.02793241989
24	1592	91.5	779.02793241989
24	1593	92	779.02793241989
24	1606	92.5	779.02793241989
24	1607	93	779.02793241989
24	1609	93.5	779.02793241989
24	1651	94	779.02793241989
24	1652	94.5	779.02793241989
24	1654	95	779.02793241989
24	1678	95.5	779.02793241989
24	1679	96	779.02793241989
24	1692	96.5	779.02793241989
24	1734	97	779.02793241989
24	1747	97.5	779.02793241989
24	1748	98	779.02793241989
24	1750	98.5	779.02793241989
24	1751	99	779.02793241989
24	1752	99.5	779.02793241989
24	1795	100	779.02793241989
24	1819	100.5	779.02793241989
24	1820	101	779.02793241989
24	1833	101.5	779.02793241989
24	1834	102	779.02793241989
24	1847	102.5	779.02793241989
24	1889	103	779.02793241989
24	1891	103.5	779.02793241989
24	1892	104	779.02793241989
24	1893	104.5	779.02793241989
24	1895	105	779.02793241989
24	1919	105.5	779.02793241989
24	1961	106	779.02793241989
24	1974	106.5	779.02793241989
24	1975	107	779.02793241989
24	1988	107.5	779.02793241989
24	1989	108	779.02793241989
24	1991	108.5	779.02793241989
24	2033	109	779.02793241989
24	2034	109.5	779.02793241989
24	2036	110	779.02793241989
24	2060	110.5	779.02793241989
24	2061	111	779.02793241989
24	2074	111.5	779.02793241989
24	2116	112	779.02793241989
24	2129	112.5	779.02793241989
24	2130	113	779.02793241989
24	2132	113.5	779.02793241989
24	2134	114	779.02793241989
24	2135	114.5	779.02793241989
24	2178	115	779.02793241989
24	2202	115.5	779.02793241989
24	2203	116	779.02793241989
24	2216	116.5	779.02793241989
24	2218	117	779.02793241989
24	2231	117.5	779.02793241989
24	2273	118	779.02793241989
24	2275	118.5	779.02793241989
24	2276	119	779.02793241989
24	2277	119.5	779.02793241989
24	2280	120	779.02793241989
24	2304	120.5	779.02793241989
24	2346	121	779.02793241989
24	2359	121.5	779.02793241989
24	2360	122	779.02793241989
24	2373	122.5	779.02793241989
24	2375	123	779.02793241989
24	2377	123.5	779.02793241989
24	2419	124	779.02793241989
24	2420	124.5	779.02793241989
24	2422	125	779.02793241989
24	2447	125.5	779.02793241989
24	2449	126	779.38625341864
24	2462	126.5	780.32384281565
24	2504	127	781.83125667035
24	2517	127.5	783.87601403879
24	2518	128	786.39394784796
24	2520	128.5	789.42234242171
24	2522	129	792.8631528982
24	2523	129.5	796.72293458997
24	2566	130	800.73772943919
24	2590	130.5	804.06634610521
24	2591	131	806.7325410943
24	2604	131.5	808.79529827727
24	2606	132	810.62484256368
24	2619	132.5	813.06915841694
24	2661	133	816.11474245392
24	2663	133.5	819.70620857258
24	2664	134	823.83802042375
24	2665	134.5	828.4669845839
24	2668	135	833.60492652618
24	2692	135.5	839.24675214833
24	2709	136	845.31831637292
24	2722	136.5	851.88615609876
24	2723	137	858.78867025783
24	2736	137.5	865.70917331559
24	2738	138	872.61988646052
24	2740	138.5	879.53027652534
24	2757	139	886.02430016583
24	2758	139.5	891.66687122101
24	2760	140	896.51210082407
24	2784	140.5	900.58392067648
24	2786	141	903.94415989486
24	2799	141.5	906.64807767181
24	2800	142	908.75325544296
24	2813	142.5	910.57916713993
24	2814	143	913.00235635481
24	2816	143.5	915.98640509885
24	2818	144	919.47753042394
24	2819	144.5	923.4827961473
24	2821	145	927.97386135259
24	2845	145.5	932.98795107697
24	2846	146	938.45125847041
24	2859	146.5	944.33748640539
24	2861	147	950.70664507853
24	2874	147.5	957.54712447508
24	2875	148	964.46849960197
24	2877	148.5	971.38626256397
24	2878	149	978.29708507101
24	2879	149.5	984.93315241427
24	2882	150	990.72863100134
24	2906	150.5	995.70836787866
24	2907	151	999.91558980582
24	2920	151.5	1003.3903399283
24	2921	152	1006.1960032985
24	2934	152.5	1008.3944414324
24	2936	153	1010.1667838294
24	2938	153.5	1012.4517707271
24	2939	154	1015.3206085085
24	2940	154.5	1018.6356235146
24	2942	155	1022.4180872318
24	2966	155.5	1026.7060368834
24	2968	156	1031.4571992423
24	2981	156.5	1036.7161809314
24	2983	157	1042.4487497833
24	3069	157.5	1048.6608433333
24	3070	158	1055.3538109102
24	3072	158.5	1062.2845463151
24	3074	159	1069.197634447
24	3075	159.5	1076.0978681164
24	3077	160	1083.0049642685
24	3101	160.5	1089.9249986983
24	3102	161	1096.8480875142
24	3115	161.5	1103.7535736419
0	0	0	0
1	0	0	0
1	124	1.989549734441	1
1	124	1.989549734441	0
2	0	0	0
3	0	0	0
4	0	0	0
5	0	0	0
6	0	0	0
7	0	0	0
8	0	0	0
9	0	0	0
10	0	0	0
11	0	0	0
12	0	0	0
13	0	0	0
14	0	0	0
15	0	0	0
16	0	0	0
17	0	0	0
18	0	0	0
19	0	0	0
19	208	5.0000105	1
19	208	5.0000105	0
19	223	6.0000105	1
19	223	6.0000105	0
19	237	7.0000105	1
19	237	7.0000105	0
19	267	10.0000105	1
19	267	10.0000105	0
19	282	11.0000105	1
19	282	11.0000105	0
19	296	12.0000105	1
19	296	12.0000105	0
19	326	15.0000105	1
19	326	15.0000105	0
19	341	16.0000105	1
19	341	16.0000105	0
19	355	17.0000105	1
19	355	17.0000105	0
19	423	20.0000105	1
19	423	20.0000105	0
19	438	21.0000105	1
19	438	21.0000105	0
19	452	22.0000105	1
19	452	22.0000105	0
19	482	25.0000105	1
19	482	25.0000105	0
19	497	26.0000105	1
19	497	26.0000105	0
19	511	27.0000105	1
19	511	27.0000105	0
19	541	30.0000105	1
19	541	30.0000105	0
19	556	31.0000105	1
19	556	31.0000105	0
19	570	32.0000105	1
19	570	32.0000105	0
19	600	35.0000105	1
19	600	35.0000105	0
19	615	36.0000105	1
19	615	36.0000105	0
19	644	37.0000105	1
19	644	37.0000105	0
19	690	40.0000105	1
19	690	40.0000105	0
19	705	41.0000105	1
19	705	41.0000105	0
19	719	42.0000105	1
19	719	42.0000105	0
19	749	45.0000105	1
19	749	45.0000105	0
19	764	46.0000105	1
19	764	46.0000105	0
19	778	47.0000105	1
19	778	47.0000105	0
19	808	50.0000105	1
19	808	50.0000105	0
19	823	51.0000105	1
19	823	51.0000105	0
19	837	52.0000105	1
19	837	52.0000105	0
19	868	55.0000105	1
19	868	55.0000105	0
19	883	56.0000105	1
19	883	56.0000105	0
19	897	57.0000105	1
19	897	57.0000105	0
19	1009	60.0000105	1
19	1009	60.0000105	0
19	1024	61.0000105	1
19	1024	61.0000105	0
19	1038	62.0000105	1
19	1038	62.0000105	0
19	1068	65.0000105	1
19	1068	65.0000105	0
19	1083	66.0000105	1
19	1083	66.0000105	0
19	1097	67.0000105	1
19	1097	67.0000105	0
19	1127	70.0000105	1
19	1127	70.0000105	0
19	1142	71.0000105	1
19	1142	71.0000105	0
19	1156	72.0000105	1
19	1156	72.0000105	0
19	1186	75.0000105	1
19	1186	75.0000105	0
19	1202	76.0000105	1
19	1202	76.0000105	0
19	1216	77.0000105	1
19	1216	77.0000105	0
19	1287	80.0000105	1
19	1287	80.0000105	0
19	1302	81.0000105	1
19	1302	81.0000105	0
19	1357	82.0000105	1
19	1357	82.0000105	0
19	1428	85.0000105	1
19	1428	85.0000105	0
19	1443	86.0000105	1
19	1443	86.0000105	0
19	1457	87.0000105	1
19	1457	87.0000105	0
19	1528	90.0000105	1
19	1528	90.0000105	0
19	1584	91.0000105	1
19	1584	91.0000105	0
19	1598	92.0000105	1
19	1598	92.0000105	0
19	1669	95.0000105	1
19	1669	95.0000105	0
19	1684	96.0000105	1
19	1684	96.0000105	0
19	1739	97.0000105	1
19	1739	97.0000105	0
19	1810	100.0000105	1
19	1810	100.0000105	0
19	1825	101.0000105	1
19	1825	101.0000105	0
19	1839	102.0000105	1
19	1839	102.0000105	0
19	1910	105.0000105	1
19	1910	105.0000105	0
19	1966	106.0000105	1
19	1966	106.0000105	0
19	1980	107.0000105	1
19	1980	107.0000105	0
19	2051	110.0000105	1
19	2051	110.0000105	0
19	2066	111.0000105	1
19	2066	111.0000105	0
19	2121	112.0000105	1
19	2121	112.0000105	0
19	2193	115.0000105	1
19	2193	115.0000105	0
19	2208	116.0000105	1
19	2208	116.0000105	0
19	2223	117.0000105	1
19	2223	117.0000105	0
19	2295	120.0000105	1
19	2295	120.0000105	0
19	2351	121.0000105	1
19	2351	121.0000105	0
19	2365	122.0000105	1
19	2365	122.0000105	0
19	2437	125.0000105	1
19	2437	125.0000105	0
19	2454	126.0000105	1
19	2454	126.0000105	0
19	2509	127.0000105	1
19	2509	127.0000105	0
19	2581	130.0000105	1
19	2581	130.0000105	0
19	2596	131.0000105	1
19	2596	131.0000105	0
19	2611	132.0000105	1
19	2611	132.0000105	0
19	2683	135.0000105	1
19	2683	135.0000105	0
19	2714	136.0000105	1
19	2714	136.0000105	0
19	2728	137.0000105	1
19	2728	137.0000105	0
19	2775	140.0000105	1
19	2775	140.0000105	0
19	2791	141.0000105	1
19	2791	141.0000105	0
19	2805	142.0000105	1
19	2805	142.0000105	0
19	2836	145.0000105	1
19	2836	145.0000105	0
19	2851	146.0000105	1
19	2851	146.0000105	0
19	2866	147.0000105	1
19	2866	147.0000105	0
19	2897	150.0000105	1
19	2897	150.0000105	0
19	2912	151.0000105	1
19	2912	151.0000105	0
19	2926	152.0000105	1
19	2926	152.0000105	0
19	2957	155.0000105	1
19	2957	155.0000105	0
19	2973	156.0000105	1
19	2973	156.0000105	0
19	2988	157.0000105	1
19	2988	157.0000105	0
19	3092	160.0000105	1
19	3092	160.0000105	0
19	3107	161.0000105	1
19	3107	161.0000105	0
19	3122	162.0000105	1
19	3122	162.0000105	0
19	3147	165.0000105	1
19	3147	165.0000105	0
19	3160	166.0000105	1
19	3160	166.0000105	0
19	3172	167.0000105	1
19	3172	167.0000105	0
19	3197	170.0000105	1
19	3197	170.0000105	0
19	3210	171.0000105	1
19	3210	171.0000105	0
19	3222	172.0000105	1
19	3222	172.0000105	0
19	3246	175.0000105	1
19	3246	175.0000105	0
19	3259	176.0000105	1
19	3259	176.0000105	0
19	3271	177.0000105	1
19	3271	177.0000105	0
19	3295	180.0000105	1
19	3295	180.0000105	0
19	3308	181.0000105	1
19	3308	181.0000105	0
19	3320	182.0000105	1
19	3320	182.0000105	0
19	3344	185.0000105	1
19	3344	185.0000105	0
19	3357	186.0000105	1
19	3357	186.0000105	0
19	3369	187.0000105	1
19	3369	187.0000105	0
19	3393	190.0000105	1
19	3393	190.0000105	0
19	3406	191.0000105	1
19	3406	191.0000105	0
19	3418	192.0000105	1
19	3418	192.0000105	0
19	3442	195.0000105	1
19	3442	195.0000105	0
19	3455	196.0000105	1
19	3455	196.0000105	0
19	3467	197.0000105	1
19	3467	197.0000105	0
19	3491	200.0000105	1
19	3491	200.0000105	0
19	3504	201.0000105	1
19	3504	201.0000105	0
19	3516	202.0000105	1
19	3516	202.0000105	0
19	3540	205.0000105	1
19	3540	205.0000105	0
19	3553	206.0000105	1
19	3553	206.0000105	0
19	3565	207.0000105	1
19	3565	207.0000105	0
19	3589	210.0000105	1
19	3589	210.0000105	0
19	3602	211.0000105	1
19	3602	211.0000105	0
19	3614	212.0000105	1
19	3614	212.0000105	0
19	3638	215.0000105	1
19	3638	215.0000105	0
19	3651	216.0000105	1
19	3651	216.0000105	0
19	3663	217.0000105	1
19	3663	217.0000105	0
19	3687	220.0000105	1
19	3687	220.0000105	0
19	3700	221.0000105	1
19	3700	221.0000105	0
19	3712	222.0000105	1
19	3712	222.0000105	0
19	3736	225.0000105	1
19	3736	225.0000105	0
19	3749	226.0000105	1
19	3749	226.0000105	0
19	3761	227.0000105	1
19	3761	227.0000105	0
19	3785	230.0000105	1
19	3785	230.0000105	0
19	3798	231.0000105	1
19	3798	231.0000105	0
19	3810	232.0000105	1
19	3810	232.0000105	0
19	3834	235.0000105	1
19	3834	235.0000105	0
19	3847	236.0000105	1
19	3847	236.0000105	0
19	3859	237.0000105	1
19	3859	237.0000105	0
19	3883	240.0000105	1
19	3883	240.0000105	0
19	3896	241.0000105	1
19	3896	241.0000105	0
19	3908	242.0000105	1
19	3908	242.0000105	0
19	3932	245.0000105	1
19	3932	245.0000105	0
19	3945	246.0000105	1
19	3945	246.0000105	0
19	3957	247.0000105	1
19	3957	247.0000105	0
19	3981	250.0000105	1
19	3981	250.0000105	0
19	3994	251.0000105	1
19	3994	251.0000105	0
19	4006	252.0000105	1
19	4006	252.0000105	0
19	4030	255.0000105	1
19	4030	255.0000105	0
19	4043	256.0000105	1
19	4043	256.0000105	0
19	4055	257.0000105	1
19	4055	257.0000105	0
19	4079	260.0000105	1
19	4079	260.0000105	0
19	4092	261.0000105	1
19	4092	261.0000105	0
19	4104	262.0000105	1
19	4104	262.0000105	0
19	4128	265.0000105	1
19	4128	265.0000105	0
19	4141	266.0000105	1
19	4141	266.0000105	0
19	4153	267.0000105	1
19	4153	267.0000105	0
19	4177	270.0000105	1
19	4177	270.0000105	0
19	4190	271.0000105	1
19	4190	271.0000105	0
19	4202	272.0000105	1
19	4202	272.0000105	0
19	4226	275.0000105	1
19	4226	275.0000105	0
19	4239	276.0000105	1
19	4239	276.0000105	0
19	4251	277.0000105	1
19	4251	277.0000105	0
19	4275	280.0000105	1
19	4275	280.0000105	0
19	4288	281.0000105	1
19	4288	281.0000105	0
19	4300	282.0000105	1
19	4300	282.0000105	0
19	4324	285.0000105	1
19	4324	285.0000105	0
19	4337	286.0000105	1
19	4337	286.0000105	0
19	4349	287.0000105	1
19	4349	287.0000105	0
19	4373	290.0000105	1
19	4373	290.0000105	0
19	4386	291.0000105	1
19	4386	291.0000105	0
19	4398	292.0000105	1
19	4398	292.0000105	0
19	4422	295.0000105	1
19	4422	295.0000105	0
19	4435	296.0000105	1
19	4435	296.0000105	0
19	4447	297.0000105	1
19	4447	297.0000105	0
20	0	0	0
21	0	0	0
21	32	1.565950000631	1
21	32	1.565950000631	0
21	56	1.565966520631	1
21	56	1.565966520631	0
22	0	0	0
23	0	0	0
23	21	1.565943340631	1
23	21	1.565943340631	0
23	44	1.565958580631	1
23	44	1.565958580631	0
23	197	5	1
23	197	5	0
23	256	10	1
23	256	10	0
23	315	15	1
23	315	15	0
23	412	20	1
23	412	20	0
23	471	25	1
23	471	25	0
23	530	30	1
23	530	30	0
23	589	35	1
23	589	35	0
23	679	40	1
23	679	40	0
23	738	45	1
23	738	45	0
23	797	50	1
23	797	50	0
23	857	55	1
23	857	55	0
23	998	60	1
23	998	60	0
23	1057	65	1
23	1057	65	0
23	1116	70	1
23	1116	70	0
23	1175	75	1
23	1175	75	0
23	1276	80	1
23	1276	80	0
23	1417	85	1
23	1417	85	0
23	1517	90	1
23	1517	90	0
23	1658	95	1
23	1658	95	0
23	1799	100	1
23	1799	100	0
23	1899	105	1
23	1899	105	0
23	2040	110	1
23	2040	110	0
23	2182	115	1
23	2182	115	0
23	2284	120	1
23	2284	120	0
23	2426	125	1
23	2426	125	0
23	2570	130	1
23	2570	130	0
23	2672	135	1
23	2672	135	0
23	2764	140	1
23	2764	140	0
23	2825	145	1
23	2825	145	0
23	2886	150	1
23	2886	150	0
23	2946	155	1
23	2946	155	0
23	3081	160	1
23	3081	160	0
23	3136	165	1
23	3136	165	0
23	3186	170	1
23	3186	170	0
23	3235	175	1
23	3235	175	0
23	3284	180	1
23	3284	180	0
23	3333	185	1
23	3333	185	0
23	3382	190	1
23	3382	190	0
23	3431	195	1
23	3431	195	0
23	3480	200	1
23	3480	200	0
23	3529	205	1
23	3529	205	0
23	3578	210	1
23	3578	210	0
23	3627	215	1
23	3627	215	0
23	3676	220	1
23	3676	220	0
23	3725	225	1
23	3725	225	0
23	3774	230	1
23	3774	230	0
23	3823	235	1
23	3823	235	0
23	3872	240	1
23	3872	240	0
23	3921	245	1
23	3921	245	0
23	3970	250	1
23	3970	250	0
23	4019	255	1
23	4019	255	0
23	4068	260	1
23	4068	260	0
23	4117	265	1
23	4117	265	0
23	4166	270	1
23	4166	270	0
23	4215	275	1
23	4215	275	0
23	4264	280	1
23	4264	280	0
23	4313	285	1
23	4313	285	0
23	4362	290	1
23	4362	290	0
23	4411	295	1
23	4411	295	0
23	4460	300	1
23	4460	300	0
29	19	1.565943340631	56
29	42	1.565958580631	72
29	195	5	104
29	254	10	104
29	313	15	104
29	410	20	104
29	469	25	104
29	528	30	104
29	587	35	104
29	677	40	104
29	736	45	104
29	795	50	104
29	855	55	104
29	996	60	104
29	1055	65	104
29	1114	70	104
29	1173	75	104
29	1274	80	104
29	1415	85	104
29	1515	90	104
29	1656	95	104
29	1797	100	104
29	1897	105	104
29	2038	110	104
29	2180	115	104
29	2282	120	104
29	2424	125	104
29	2568	130	104
29	2670	135	104
29	2762	140	104
29	2823	145	104
29	2884	150	104
29	2944	155	104
29	3079	160	104
29	3134	165	104
29	3184	170	104
29	3233	175	104
29	3282	180	104
29	3331	185	104
29	3380	190	104
29	3429	195	104
29	3478	200	104
29	3527	205	104
29	3576	210	104
29	3625	215	104
29	3674	220	104
29	3723	225	104
29	3772	230	104
29	3821	235	104
29	3870	240	104
29	3919	245	104
29	3968	250	104
29	4017	255	104
29	4066	260	104
29	4115	265	104
29	4164	270	104
29	4213	275	104
29	4262	280	104
29	4311	285	104
29	4360	290	104
29	4409	295	104
29	4458	300	104
30	21	1.565943340631	74
30	44	1.565958580631	90
30	197	5	122
30	256	10	122
30	315	15	122
30	412	20	122
30	471	25	122
30	530	30	122
30	589	35	122
30	679	40	122
30	738	45	122
30	797	50	122
30	857	55	122
30	998	60	122
30	1057	65	122
30	1116	70	122
30	1175	75	122
30	1276	80	122
30	1417	85	122
30	1517	90	122
30	1658	95	122
30	1799	100	122
30	1899	105	122
30	2040	110	122
30	2182	115	122
30	2284	120	122
30	2426	125	122
30	2570	130	122
30	2672	135	122
30	2764	140	122
30	2825	145	122
30	2886	150	122
30	2946	155	122
30	3081	160	122
30	3136	165	122
30	3186	170	122
30	3235	175	122
30	3284	180	122
30	3333	185	122
30	3382	190	122
30	3431	195	122
30	3480	200	122
30	3529	205	122
30	3578	210	122
30	3627	215	122
30	3676	220	122
30	3725	225	122
30	3774	230	122
30	3823	235	122
30	3872	240	122
30	3921	245	122
30	3970	250	122
30	4019	255	122
30	4068	260	122
30	4117	265	122
30	4166	270	122
30	4215	275	122
30	4264	280	122
30	4313	285	122
30	4362	290	122
30	4411	295	122
30	4460	300	122
31	21	1.565943340631	0
31	44	1.565958580631	0
31	197	5	0
31	256	10	0
31	315	15	0
31	412	20	0
31	471	25	0
31	530	30	0
31	589	35	0
31	679	40	0
31	738	45	0
31	797	50	0
31	857	55	0
31	998	60	0
31	1057	65	0
31	1116	70	0
31	1175	75	0
31	1276	80	0
31	1417	85	0
31	1517	90	0
31	1658	95	0
31	1799	100	0
31	1899	105	0
31	2040	110	0
31	2182	115	0
31	2284	120	0
31	2426	125	0
31	2570	130	0
31	2672	135	0
31	2764	140	0
31	2825	145	0
31	2886	150	0
31	2946	155	0
31	3081	160	0
31	3136	165	0
31	3186	170	0
31	3235	175	0
31	3284	180	0
31	3333	185	0
31	3382	190	0
31	3431	195	0
31	3480	200	0
31	3529	205	0
31	3578	210	0
31	3627	215	0
31	3676	220	0
31	3725	225	0
31	3774	230	0
31	3823	235	0
31	3872	240	0
31	3921	245	0
31	3970	250	0
31	4019	255	0
31	4068	260	0
31	4117	265	0
31	4166	270	0
31	4215	275	0
31	4264	280	0
31	4313	285	0
31	4362	290	0
31	4411	295	0
31	4460	300	0
32	23	1.565943340631	74
32	46	1.565958580631	90
32	199	5	122
32	258	10	122
32	317	15	122
32	414	20	122
32	473	25	122
32	532	30	122
32	591	35	122
32	681	40	122
32	740	45	122
32	799	50	122
32	859	55	122
32	1000	60	122
32	1059	65	122
32	1118	70	122
32	1177	75	122
32	1278	80	122
32	1419	85	122
32	1519	90	122
32	1660	95	122
32	1801	100	122
32	1901	105	122
32	2042	110	122
32	2184	115	122
32	2286	120	122
32	2428	125	122
32	2572	130	122
32	2674	135	122
32	2766	140	122
32	2827	145	122
32	2888	150	122
32	2948	155	122
32	3083	160	122
32	3138	165	122
32	3188	170	122
32	3237	175	122
32	3286	180	122
32	3335	185	122
32	3384	190	122
32	3433	195	122
32	3482	200	122
32	3531	205	122
32	3580	210	122
32	3629	215	122
32	3678	220	122
32	3727	225	122
32	3776	230	122
32	3825	235	122
32	3874	240	122
32	3923	245	122
32	3972	250	122
32	4021	255	122
32	4070	260	122
32	4119	265	122
32	4168	270	122
32	4217	275	122
32	4266	280	122
32	4315	285	122
32	4364	290	122
32	4413	295	122
32	4462	300	122
33	24	1.565949900631	74
33	48	1.565966420631	90
33	200	5.0000104	122
33	259	10.0000104	122
33	318	15.0000104	122
33	415	20.0000104	122
33	474	25.0000104	122
33	533	30.0000104	122
33	592	35.0000104	122
33	682	40.0000104	122
33	741	45.0000104	122
33	800	50.0000104	122
33	860	55.0000104	122
33	1001	60.0000104	122
33	1060	65.0000104	122
33	1119	70.0000104	122
33	1178	75.0000104	122
33	1279	80.0000104	122
33	1420	85.0000104	122
33	1520	90.0000104	122
33	1661	95.0000104	122
33	1802	100.0000104	122
33	1902	105.0000104	122
33	2043	110.0000104	122
33	2185	115.0000104	122
33	2287	120.0000104	122
33	2429	125.0000104	122
33	2573	130.0000104	122
33	2675	135.0000104	122
33	2767	140.0000104	122
33	2828	145.0000104	122
33	2889	150.0000104	122
33	2949	155.0000104	122
33	3084	160.0000104	122
33	3139	165.0000104	122
33	3189	170.0000104	122
33	3238	175.0000104	122
33	3287	180.0000104	122
33	3336	185.0000104	122
33	3385	190.0000104	122
33	3434	195.0000104	122
33	3483	200.0000104	122
33	3532	205.0000104	122
33	3581	210.0000104	122
33	3630	215.0000104	122
33	3679	220.0000104	122
33	3728	225.0000104	122
33	3777	230.0000104	122
33	3826	235.0000104	122
33	3875	240.0000104	122
33	3924	245.0000104	122
33	3973	250.0000104	122
33	4022	255.0000104	122
33	4071	260.0000104	122
33	4120	265.0000104	122
33	4169	270.0000104	122
33	4218	275.0000104	122
33	4267	280.0000104	122
33	4316	285.0000104	122
33	4365	290.0000104	122
33	4414	295.0000104	122
34	25	1.565950000631	74
34	49	1.565966520631	90
34	201	5.0000105	122
34	260	10.0000105	122
34	319	15.0000105	122
34	416	20.0000105	122
34	475	25.0000105	122
34	534	30.0000105	122
34	593	35.0000105	122
34	683	40.0000105	122
34	742	45.0000105	122
34	801	50.0000105	122
34	861	55.0000105	122
34	1002	60.0000105	122
34	1061	65.0000105	122
34	1120	70.0000105	122
34	1179	75.0000105	122
34	1280	80.0000105	122
34	1421	85.0000105	122
34	1521	90.0000105	122
34	1662	95.0000105	122
34	1803	100.0000105	122
34	1903	105.0000105	122
34	2044	110.0000105	122
34	2186	115.0000105	122
34	2288	120.0000105	122
34	2430	125.0000105	122
34	2574	130.0000105	122
34	2676	135.0000105	122
34	2768	140.0000105	122
34	2829	145.0000105	122
34	2890	150.0000105	122
34	2950	155.0000105	122
34	3085	160.0000105	122
34	3140	165.0000105	122
34	3190	170.0000105	122
34	3239	175.0000105	122
34	3288	180.0000105	122
34	3337	185.0000105	122
34	3386	190.0000105	122
34	3435	195.0000105	122
34	3484	200.0000105	122
34	3533	205.0000105	122
34	3582	210.0000105	122
34	3631	215.0000105	122
34	3680	220.0000105	122
34	3729	225.0000105	122
34	3778	230.0000105	122
34	3827	235.0000105	122
34	3876	240.0000105	122
34	3925	245.0000105	122
34	3974	250.0000105	122
34	4023	255.0000105	122
34	4072	260.0000105	122
34	4121	265.0000105	122
34	4170	270.0000105	122
34	4219	275.0000105	122
34	4268	280.0000105	122
34	4317	285.0000105	122
34	4366	290.0000105	122
34	4415	295.0000105	122
35	25	1.565950000631	74
35	49	1.565966520631	90
35	201	5.0000105	122
35	260	10.0000105	122
35	319	15.0000105	122
35	416	20.0000105	122
35	475	25.0000105	122
35	534	30.0000105	122
35	593	35.0000105	122
35	683	40.0000105	122
35	742	45.0000105	122
35	801	50.0000105	122
35	861	55.0000105	122
35	1002	60.0000105	122
35	1061	65.0000105	122
35	1120	70.0000105	122
35	1179	75.0000105	122
35	1280	80.0000105	122
35	1421	85.0000105	122
35	1521	90.0000105	122
35	1662	95.0000105	122
35	1803	100.0000105	122
35	1903	105.0000105	122
35	2044	110.0000105	122
35	2186	115.0000105	122
35	2288	120.0000105	122
35	2430	125.0000105	122
35	2574	130.0000105	122
35	2676	135.0000105	122
35	2768	140.0000105	122
35	2829	145.0000105	122
35	2890	150.0000105	122
35	2950	155.0000105	122
35	3085	160.0000105	122
35	3140	165.0000105	122
35	3190	170.0000105	122
35	3239	175.0000105	122
35	3288	180.0000105	122
35	3337	185.0000105	122
35	3386	190.0000105	122
35	3435	195.0000105	122
35	3484	200.0000105	122
35	3533	205.0000105	122
35	3582	210.0000105	122
35	3631	215.0000105	122
35	3680	220.0000105	122
35	3729	225.0000105	122
35	3778	230.0000105	122
35	3827	235.0000105	122
35	3876	240.0000105	122
35	3925	245.0000105	122
35	3974	250.0000105	122
35	4023	255.0000105	122
35	4072	260.0000105	122
35	4121	265.0000105	122
35	4170	270.0000105	122
35	4219	275.0000105	122
35	4268	280.0000105	122
35	4317	285.0000105	122
35	4366	290.0000105	122
35	4415	295.0000105	122
36	26	1.565950000631	56
36	50	1.565966520631	72
36	202	5.0000105	104
36	261	10.0000105	104
36	320	15.0000105	104
36	417	20.0000105	104
36	476	25.0000105	104
36	535	30.0000105	104
36	594	35.0000105	104
36	684	40.0000105	104
36	743	45.0000105	104
36	802	50.0000105	104
36	862	55.0000105	104
36	1003	60.0000105	104
36	1062	65.0000105	104
36	1121	70.0000105	104
36	1180	75.0000105	104
36	1281	80.0000105	104
36	1422	85.0000105	104
36	1522	90.0000105	104
36	1663	95.0000105	104
36	1804	100.0000105	104
36	1904	105.0000105	104
36	2045	110.0000105	104
36	2187	115.0000105	104
36	2289	120.0000105	104
36	2431	125.0000105	104
36	2575	130.0000105	104
36	2677	135.0000105	104
36	2769	140.0000105	104
36	2830	145.0000105	104
36	2891	150.0000105	104
36	2951	155.0000105	104
36	3086	160.0000105	104
36	3141	165.0000105	104
36	3191	170.0000105	104
36	3240	175.0000105	104
36	3289	180.0000105	104
36	3338	185.0000105	104
36	3387	190.0000105	104
36	3436	195.0000105	104
36	3485	200.0000105	104
36	3534	205.0000105	104
36	3583	210.0000105	104
36	3632	215.0000105	104
36	3681	220.0000105	104
36	3730	225.0000105	104
36	3779	230.0000105	104
36	3828	235.0000105	104
36	3877	240.0000105	104
36	3926	245.0000105	104
36	3975	250.0000105	104
36	4024	255.0000105	104
36	4073	260.0000105	104
36	4122	265.0000105	104
36	4171	270.0000105	104
36	4220	275.0000105	104
36	4269	280.0000105	104
36	4318	285.0000105	104
36	4367	290.0000105	104
36	4416	295.0000105	104
37	30	1.565950000631	80
37	54	1.565966520631	72
38	32	1.565950000631	98
38	56	1.565966520631	90
39	32	1.565950000631	0
39	56	1.565966520631	0
40	34	1.565950000631	98
40	58	1.565966520631	90
41	36	1.565958480631	98
41	60	1.565974360631	90
42	37	1.565958580631	98
42	61	1.565974460631	90
43	37	1.565958580631	98
43	61	1.565974460631	90
44	38	1.565958580631	80
44	62	1.565974460631	72
45	122	1.989549734441	72
46	124	1.989549734441	90
47	124	1.989549734441	0
48	126	1.989549734441	90
49	128	1.989557574441	90
50	129	1.989557674441	90
51	129	1.989557674441	90
52	130	1.989557674441	72
53	191	5	0
53	251	10	1
53	310	15	2
53	407	20	3
53	466	25	4
53	525	30	5
53	584	35	6
53	674	40	7
53	733	45	8
53	792	50	9
53	852	55	10
53	993	60	11
53	1052	65	12
53	1111	70	13
53	1170	75	14
53	1271	80	15
53	1412	85	16
53	1512	90	17
53	1653	95	18
53	1794	100	19
53	1894	105	20
53	2035	110	21
53	2177	115	22
53	2279	120	23
53	2421	125	24
53	2565	130	25
53	2667	135	26
53	2759	140	27
53	2820	145	28
53	2881	150	29
53	2941	155	30
53	3076	160	31
53	3132	165	32
53	3182	170	33
53	3231	175	34
53	3280	180	35
53	3329	185	36
53	3378	190	37
53	3427	195	38
53	3476	200	39
53	3525	205	40
53	3574	210	41
53	3623	215	42
53	3672	220	43
53	3721	225	44
53	3770	230	45
53	3819	235	46
53	3868	240	47
53	3917	245	48
53	3966	250	49
53	4015	255	50
53	4064	260	51
53	4113	265	52
53	4162	270	53
53	4211	275	54
53	4260	280	55
53	4309	285	56
53	4358	290	57
53	4407	295	58
53	4456	300	59
54	206	5.0000105	80
54	221	6.0000105	80
54	235	7.0000105	80
54	265	10.0000105	80
54	280	11.0000105	80
54	294	12.0000105	80
54	324	15.0000105	80
54	339	16.0000105	80
54	353	17.0000105	80
54	421	20.0000105	80
54	436	21.0000105	80
54	450	22.0000105	80
54	480	25.0000105	80
54	495	26.0000105	80
54	509	27.0000105	80
54	539	30.0000105	80
54	554	31.0000105	80
54	568	32.0000105	80
54	598	35.0000105	80
54	613	36.0000105	80
54	642	37.0000105	80
54	688	40.0000105	80
54	703	41.0000105	80
54	717	42.0000105	80
54	747	45.0000105	80
54	762	46.0000105	80
54	776	47.0000105	80
54	806	50.0000105	80
54	821	51.0000105	80
54	835	52.0000105	80
54	866	55.0000105	80
54	881	56.0000105	80
54	895	57.0000105	80
54	1007	60.0000105	80
54	1022	61.0000105	80
54	1036	62.0000105	80
54	1066	65.0000105	80
54	1081	66.0000105	80
54	1095	67.0000105	80
54	1125	70.0000105	80
54	1140	71.0000105	80
54	1154	72.0000105	80
54	1184	75.0000105	80
54	1200	76.0000105	80
54	1214	77.0000105	80
54	1285	80.0000105	80
54	1300	81.0000105	80
54	1355	82.0000105	80
54	1426	85.0000105	80
54	1441	86.0000105	80
54	1455	87.0000105	80
54	1526	90.0000105	80
54	1582	91.0000105	80
54	1596	92.0000105	80
54	1667	95.0000105	80
54	1682	96.0000105	80
54	1737	97.0000105	80
54	1808	100.0000105	80
54	1823	101.0000105	80
54	1837	102.0000105	80
54	1908	105.0000105	80
54	1964	106.0000105	80
54	1978	107.0000105	80
54	2049	110.0000105	80
54	2064	111.0000105	80
54	2119	112.0000105	80
54	2191	115.0000105	80
54	2206	116.0000105	80
54	2221	117.0000105	80
54	2293	120.0000105	80
54	2349	121.0000105	80
54	2363	122.0000105	80
54	2435	125.0000105	80
54	2452	126.0000105	80
54	2507	127.0000105	80
54	2579	130.0000105	80
54	2594	131.0000105	80
54	2609	132.0000105	80
54	2681	135.0000105	80
54	2712	136.0000105	80
54	2726	137.0000105	80
54	2773	140.0000105	80
54	2789	141.0000105	80
54	2803	142.0000105	80
54	2834	145.0000105	80
54	2849	146.0000105	80
54	2864	147.0000105	80
54	2895	150.0000105	80
54	2910	151.0000105	80
54	2924	152.0000105	80
54	2955	155.0000105	80
54	2971	156.0000105	80
54	2986	157.0000105	80
54	3090	160.0000105	80
54	3105	161.0000105	80
54	3120	162.0000105	80
54	3145	165.0000105	80
54	3158	166.0000105	80
54	3170	167.0000105	80
54	3195	170.0000105	80
54	3208	171.0000105	80
54	3220	172.0000105	80
54	3244	175.0000105	80
54	3257	176.0000105	80
54	3269	177.0000105	80
54	3293	180.0000105	80
54	3306	181.0000105	80
54	3318	182.0000105	80
54	3342	185.0000105	80
54	3355	186.0000105	80
54	3367	187.0000105	80
54	3391	190.0000105	80
54	3404	191.0000105	80
54	3416	192.0000105	80
54	3440	195.0000105	80
54	3453	196.0000105	80
54	3465	197.0000105	80
54	3489	200.0000105	80
54	3502	201.0000105	80
54	3514	202.0000105	80
54	3538	205.0000105	80
54	3551	206.0000105	80
54	3563	207.0000105	80
54	3587	210.0000105	80
54	3600	211.0000105	80
54	3612	212.0000105	80
54	3636	215.0000105	80
54	3649	216.0000105	80
54	3661	217.0000105	80
54	3685	220.0000105	80
54	3698	221.0000105	80
54	3710	222.0000105	80
54	3734	225.0000105	80
54	3747	226.0000105	80
54	3759	227.0000105	80
54	3783	230.0000105	80
54	3796	231.0000105	80
54	3808	232.0000105	80
54	3832	235.0000105	80
54	3845	236.0000105	80
54	3857	237.0000105	80
54	3881	240.0000105	80
54	3894	241.0000105	80
54	3906	242.0000105	80
54	3930	245.0000105	80
54	3943	246.0000105	80
54	3955	247.0000105	80
54	3979	250.0000105	80
54	3992	251.0000105	80
54	4004	252.0000105	80
54	4028	255.0000105	80
54	4041	256.0000105	80
54	4053	257.0000105	80
54	4077	260.0000105	80
54	4090	261.0000105	80
54	4102	262.0000105	80
54	4126	265.0000105	80
54	4139	266.0000105	80
54	4151	267.0000105	80
54	4175	270.0000105	80
54	4188	271.0000105	80
54	4200	272.0000105	80
54	4224	275.0000105	80
54	4237	276.0000105	80
54	4249	277.0000105	80
54	4273	280.0000105	80
54	4286	281.0000105	80
54	4298	282.0000105	80
54	4322	285.0000105	80
54	4335	286.0000105	80
54	4347	287.0000105	80
54	4371	290.0000105	80
54	4384	291.0000105	80
54	4396	292.0000105	80
54	4420	295.0000105	80
54	4433	296.0000105	80
54	4445	297.0000105	80
55	208	5.0000105	98
55	223	6.0000105	98
55	237	7.0000105	98
55	267	10.0000105	98
55	282	11.0000105	98
55	296	12.0000105	98
55	326	15.0000105	98
55	341	16.0000105	98
55	355	17.0000105	98
55	423	20.0000105	98
55	438	21.0000105	98
55	452	22.0000105	98
55	482	25.0000105	98
55	497	26.0000105	98
55	511	27.0000105	98
55	541	30.0000105	98
55	556	31.0000105	98
55	570	32.0000105	98
55	600	35.0000105	98
55	615	36.0000105	98
55	644	37.0000105	98
55	690	40.0000105	98
55	705	41.0000105	98
55	719	42.0000105	98
55	749	45.0000105	98
55	764	46.0000105	98
55	778	47.0000105	98
55	808	50.0000105	98
55	823	51.0000105	98
55	837	52.0000105	98
55	868	55.0000105	98
55	883	56.0000105	98
55	897	57.0000105	98
55	1009	60.0000105	98
55	1024	61.0000105	98
55	1038	62.0000105	98
55	1068	65.0000105	98
55	1083	66.0000105	98
55	1097	67.0000105	98
55	1127	70.0000105	98
55	1142	71.0000105	98
55	1156	72.0000105	98
55	1186	75.0000105	98
55	1202	76.0000105	98
55	1216	77.0000105	98
55	1287	80.0000105	98
55	1302	81.0000105	98
55	1357	82.0000105	98
55	1428	85.0000105	98
55	1443	86.0000105	98
55	1457	87.0000105	98
55	1528	90.0000105	98
55	1584	91.0000105	98
55	1598	92.0000105	98
55	1669	95.0000105	98
55	1684	96.0000105	98
55	1739	97.0000105	98
55	1810	100.0000105	98
55	1825	101.0000105	98
55	1839	102.0000105	98
55	1910	105.0000105	98
55	1966	106.0000105	98
55	1980	107.0000105	98
55	2051	110.0000105	98
55	2066	111.0000105	98
55	2121	112.0000105	98
55	2193	115.0000105	98
55	2208	116.0000105	98
55	2223	117.0000105	98
55	2295	120.0000105	98
55	2351	121.0000105	98
55	2365	122.0000105	98
55	2437	125.0000105	98
55	2454	126.0000105	98
55	2509	127.0000105	98
55	2581	130.0000105	98
55	2596	131.0000105	98
55	2611	132.0000105	98
55	2683	135.0000105	98
55	2714	136.0000105	98
55	2728	137.0000105	98
55	2775	140.0000105	98
55	2791	141.0000105	98
55	2805	142.0000105	98
55	2836	145.0000105	98
55	2851	146.0000105	98
55	2866	147.0000105	98
55	2897	150.0000105	98
55	2912	151.0000105	98
55	2926	152.0000105	98
55	2957	155.0000105	98
55	2973	156.0000105	98
55	2988	157.0000105	98
55	3092	160.0000105	98
55	3107	161.0000105	98
55	3122	162.0000105	98
55	3147	165.0000105	98
55	3160	166.0000105	98
55	3172	167.0000105	98
55	3197	170.0000105	98
55	3210	171.0000105	98
55	3222	172.0000105	98
55	3246	175.0000105	98
55	3259	176.0000105	98
55	3271	177.0000105	98
55	3295	180.0000105	98
55	3308	181.0000105	98
55	3320	182.0000105	98
55	3344	185.0000105	98
55	3357	186.0000105	98
55	3369	187.0000105	98
55	3393	190.0000105	98
55	3406	191.0000105	98
55	3418	192.0000105	98
55	3442	195.0000105	98
55	3455	196.0000105	98
55	3467	197.0000105	98
55	3491	200.0000105	98
55	3504	201.0000105	98
55	3516	202.0000105	98
55	3540	205.0000105	98
55	3553	206.0000105	98
55	3565	207.0000105	98
55	3589	210.0000105	98
55	3602	211.0000105	98
55	3614	212.0000105	98
55	3638	215.0000105	98
55	3651	216.0000105	98
55	3663	217.0000105	98
55	3687	220.0000105	98
55	3700	221.0000105	98
55	3712	222.0000105	98
55	3736	225.0000105	98
55	3749	226.0000105	98
55	3761	227.0000105	98
55	3785	230.0000105	98
55	3798	231.0000105	98
55	3810	232.0000105	98
55	3834	235.0000105	98
55	3847	236.0000105	98
55	3859	237.0000105	98
55	3883	240.0000105	98
55	3896	241.0000105	98
55	3908	242.0000105	98
55	3932	245.0000105	98
55	3945	246.0000105	98
55	3957	247.0000105	98
55	3981	250.0000105	98
55	3994	251.0000105	98
55	4006	252.0000105	98
55	4030	255.0000105	98
55	4043	256.0000105	98
[...]
57	839	52.0000105	98
57	870	55.0000105	98
57	885	56.0000105	98
57	899	57.0000105	98
57	1011	60.0000105	98
57	1026	61.0000105	98
57	1040	62.0000105	98
57	1070	65.0000105	98
57	1085	66.0000105	98
57	1099	67.0000105	98
57	1129	70.0000105	98
57	1144	71.0000105	98
57	1158	72.0000105	98
57	1188	75.0000105	98
57	1204	76.0000105	98
57	1218	77.0000105	98
57	1289	80.0000105	98
57	1304	81.0000105	98
57	1359	82.0000105	98
57	1430	85.0000105	98
57	1445	86.0000105	98
57	1459	87.0000105	98
57	1530	90.0000105	98
57	1586	91.0000105	98
57	1600	92.0000105	98
57	1671	95.0000105	98
57	1686	96.0000105	98
57	1741	97.0000105	98
57	1812	100.0000105	98
57	1827	101.0000105	98
57	1841	102.0000105	98
57	1912	105.0000105	98
57	1968	106.0000105	98
57	1982	107.0000105	98
57	2053	110.0000105	98
57	2068	111.0000105	98
57	2123	112.0000105	98
57	2195	115.0000105	98
57	2210	116.0000105	98
57	2225	117.0000105	98
57	2297	120.0000105	98
57	2353	121.0000105	98
57	2367	122.0000105	98
57	2439	125.0000105	98
57	2456	126.0000105	98
57	2511	127.0000105	98
57	2583	130.0000105	98
57	2598	131.0000105	98
57	2613	132.0000105	98
57	2685	135.0000105	98
57	2716	136.0000105	98
57	2730	137.0000105	98
57	2777	140.0000105	98
57	2793	141.0000105	98
57	2807	142.0000105	98
57	2838	145.0000105	98
57	2853	146.0000105	98
57	2868	147.0000105	98
57	2899	150.0000105	98
57	2914	151.0000105	98
57	2928	152.0000105	98
57	2959	155.0000105	98
57	2975	156.0000105	98
57	2990	157.0000105	98
57	3094	160.0000105	98
57	3109	161.0000105	98
57	3124	162.0000105	98
57	3149	165.0000105	98
57	3162	166.0000105	98
57	3174	167.0000105	98
57	3199	170.0000105	98
57	3212	171.0000105	98
57	3224	172.0000105	98
57	3248	175.0000105	98
57	3261	176.0000105	98
57	3273	177.0000105	98
57	3297	180.0000105	98
57	3310	181.0000105	98
57	3322	182.0000105	98
57	3346	185.0000105	98
57	3359	186.0000105	98
57	3371	187.0000105	98
57	3395	190.0000105	98
57	3408	191.0000105	98
57	3420	192.0000105	98
57	3444	195.0000105	98
57	3457	196.0000105	98
57	3469	197.0000105	98
57	3493	200.0000105	98
57	3506	201.0000105	98
57	3518	202.0000105	98
57	3542	205.0000105	98
57	3555	206.0000105	98
57	3567	207.0000105	98
57	3591	210.0000105	98
57	3604	211.0000105	98
57	3616	212.0000105	98
57	3640	215.0000105	98
57	3653	216.0000105	98
57	3665	217.0000105	98
57	3689	220.0000105	98
57	3702	221.0000105	98
57	3714	222.0000105	98
57	3738	225.0000105	98
57	3751	226.0000105	98
57	3763	227.0000105	98
57	3787	230.0000105	98
57	3800	231.0000105	98
57	3812	232.0000105	98
57	3836	235.0000105	98
57	3849	236.0000105	98
57	3861	237.0000105	98
57	3885	240.0000105	98
57	3898	241.0000105	98
57	3910	242.0000105	98
57	3934	245.0000105	98
57	3947	246.0000105	98
57	3959	247.0000105	98
57	3983	250.0000105	98
57	3996	251.0000105	98
57	4008	252.0000105	98
57	4032	255.0000105	98
57	4045	256.0000105	98
57	4057	257.0000105	98
57	4081	260.0000105	98
57	4094	261.0000105	98
57	4106	262.0000105	98
57	4130	265.0000105	98
57	4143	266.0000105	98
57	4155	267.0000105	98
57	4179	270.0000105	98
57	4192	271.0000105	98
57	4204	272.0000105	98
57	4228	275.0000105	98
57	4241	276.0000105	98
57	4253	277.0000105	98
57	4277	280.0000105	98
57	4290	281.0000105	98
57	4302	282.0000105	98
57	4326	285.0000105	98
57	4339	286.0000105	98
57	4351	287.0000105	98
57	4375	290.0000105	98
57	4388	291.0000105	98
57	4400	292.0000105	98
57	4424	295.0000105	98
57	4437	296.0000105	98
57	4449	297.0000105	98
58	212	5.00001898	98
58	226	6.00001898	98
58	240	7.00001898	98
58	271	10.00001898	98
58	285	11.00001898	98
58	299	12.00001898	98
58	330	15.00001898	98
58	344	16.00001898	98
58	358	17.00001898	98
58	427	20.00001898	98
58	441	21.00001898	98
58	455	22.00001898	98
58	486	25.00001898	98
58	500	26.00001898	98
58	514	27.00001898	98
58	545	30.00001898	98
58	559	31.00001898	98
58	573	32.00001898	98
58	604	35.00001898	98
58	618	36.00001898	98
58	647	37.00001898	98
58	694	40.00001898	98
58	708	41.00001898	98
58	722	42.00001898	98
58	753	45.00001898	98
58	767	46.00001898	98
58	781	47.00001898	98
58	812	50.00001898	98
58	826	51.00001898	98
58	840	52.00001898	98
58	872	55.00001898	98
58	886	56.00001898	98
58	900	57.00001898	98
58	1013	60.00001898	98
58	1027	61.00001898	98
58	1041	62.00001898	98
58	1072	65.00001898	98
58	1086	66.00001898	98
58	1100	67.00001898	98
58	1131	70.00001898	98
58	1145	71.00001898	98
58	1159	72.00001898	98
58	1190	75.00001898	98
58	1205	76.00001898	98
58	1219	77.00001898	98
58	1291	80.00001898	98
58	1305	81.00001898	98
58	1360	82.00001898	98
58	1432	85.00001898	98
58	1446	86.00001898	98
58	1460	87.00001898	98
58	1532	90.00001898	98
58	1587	91.00001898	98
58	1601	92.00001898	98
58	1673	95.00001898	98
58	1687	96.00001898	98
58	1742	97.00001898	98
58	1814	100.00001898	98
58	1828	101.00001898	98
58	1842	102.00001898	98
58	1914	105.00001898	98
58	1969	106.00001898	98
58	1983	107.00001898	98
58	2055	110.00001898	98
58	2069	111.00001898	98
58	2124	112.00001898	98
58	2197	115.00001898	98
58	2211	116.00001898	98
58	2226	117.00001898	98
58	2299	120.00001898	98
58	2354	121.00001898	98
58	2368	122.00001898	98
58	2441	125.00001898	98
58	2457	126.00001898	98
58	2512	127.00001898	98
58	2585	130.00001898	98
58	2599	131.00001898	98
58	2614	132.00001898	98
58	2687	135.00001898	98
58	2717	136.00001898	98
58	2731	137.00001898	98
58	2779	140.00001898	98
58	2794	141.00001898	98
58	2808	142.00001898	98
58	2840	145.00001898	98
58	2854	146.00001898	98
58	2869	147.00001898	98
58	2901	150.00001898	98
58	2915	151.00001898	98
58	2929	152.00001898	98
58	2961	155.00001898	98
58	2976	156.00001898	98
58	2991	157.00001898	98
58	3096	160.00001898	98
58	3110	161.00001898	98
58	3125	162.00001898	98
58	3151	165.00001898	98
58	3163	166.00001898	98
58	3175	167.00001898	98
58	3201	170.00001898	98
58	3213	171.00001898	98
58	3225	172.00001898	98
58	3250	175.00001898	98
58	3262	176.00001898	98
58	3274	177.00001898	98
58	3299	180.00001898	98
58	3311	181.00001898	98
58	3323	182.00001898	98
58	3348	185.00001898	98
58	3360	186.00001898	98
58	3372	187.00001898	98
58	3397	190.00001898	98
58	3409	191.00001898	98
58	3421	192.00001898	98
58	3446	195.00001898	98
58	3458	196.00001898	98
58	3470	197.00001898	98
58	3495	200.00001898	98
58	3507	201.00001898	98
58	3519	202.00001898	98
58	3544	205.00001898	98
58	3556	206.00001898	98
58	3568	207.00001898	98
58	3593	210.00001898	98
58	3605	211.00001898	98
58	3617	212.00001898	98
58	3642	215.00001898	98
58	3654	216.00001898	98
58	3666	217.00001898	98
58	3691	220.00001898	98
58	3703	221.00001898	98
58	3715	222.00001898	98
58	3740	225.00001898	98
58	3752	226.00001898	98
58	3764	227.00001898	98
58	3789	230.00001898	98
58	3801	231.00001898	98
58	3813	232.00001898	98
58	3838	235.00001898	98
58	3850	236.00001898	98
58	3862	237.00001898	98
58	3887	240.00001898	98
58	3899	241.00001898	98
58	3911	242.00001898	98
58	3936	245.00001898	98
58	3948	246.00001898	98
58	3960	247.00001898	98
58	3985	250.00001898	98
58	3997	251.00001898	98
58	4009	252.00001898	98
58	4034	255.00001898	98
58	4046	256.00001898	98
58	4058	257.00001898	98
58	4083	260.00001898	98
58	4095	261.00001898	98
58	4107	262.00001898	98
58	4132	265.00001898	98
58	4144	266.00001898	98
58	4156	267.00001898	98
58	4181	270.00001898	98
58	4193	271.00001898	98
58	4205	272.00001898	98
58	4230	275.00001898	98
58	4242	276.00001898	98
58	4254	277.00001898	98
58	4279	280.00001898	98
58	4291	281.00001898	98
58	4303	282.00001898	98
58	4328	285.00001898	98
58	4340	286.00001898	98
58	4352	287.00001898	98
58	4377	290.00001898	98
58	4389	291.00001898	98
58	4401	292.00001898	98
58	4426	295.00001898	98
58	4438	296.00001898	98
58	4450	297.00001898	98
59	213	5.00001908	98
59	227	6.00001908	98
59	241	7.00001908	98
59	272	10.00001908	98
59	286	11.00001908	98
59	300	12.00001908	98
59	331	15.00001908	98
59	345	16.00001908	98
59	359	17.00001908	98
59	428	20.00001908	98
59	442	21.00001908	98
59	456	22.00001908	98
59	487	25.00001908	98
59	501	26.00001908	98
59	515	27.00001908	98
59	546	30.00001908	98
59	560	31.00001908	98
59	574	32.00001908	98
59	605	35.00001908	98
59	619	36.00001908	98
59	648	37.00001908	98
59	695	40.00001908	98
59	709	41.00001908	98
59	723	42.00001908	98
59	754	45.00001908	98
59	768	46.00001908	98
59	782	47.00001908	98
59	813	50.00001908	98
59	827	51.00001908	98
59	841	52.00001908	98
59	873	55.00001908	98
59	887	56.00001908	98
59	901	57.00001908	98
59	1014	60.00001908	98
59	1028	61.00001908	98
59	1042	62.00001908	98
59	1073	65.00001908	98
59	1087	66.00001908	98
59	1101	67.00001908	98
59	1132	70.00001908	98
59	1146	71.00001908	98
59	1160	72.00001908	98
59	1191	75.00001908	98
59	1206	76.00001908	98
59	1220	77.00001908	98
59	1292	80.00001908	98
59	1306	81.00001908	98
59	1361	82.00001908	98
59	1433	85.00001908	98
59	1447	86.00001908	98
59	1461	87.00001908	98
59	1533	90.00001908	98
59	1588	91.00001908	98
59	1602	92.00001908	98
59	1674	95.00001908	98
59	1688	96.00001908	98
59	1743	97.00001908	98
59	1815	100.00001908	98
59	1829	101.00001908	98
59	1843	102.00001908	98
59	1915	105.00001908	98
59	1970	106.00001908	98
59	1984	107.00001908	98
59	2056	110.00001908	98
59	2070	111.00001908	98
59	2125	112.00001908	98
59	2198	115.00001908	98
59	2212	116.00001908	98
59	2227	117.00001908	98
59	2300	120.00001908	98
59	2355	121.00001908	98
59	2369	122.00001908	98
59	2442	125.00001908	98
59	2458	126.00001908	98
59	2513	127.00001908	98
59	2586	130.00001908	98
59	2600	131.00001908	98
59	2615	132.00001908	98
59	2688	135.00001908	98
59	2718	136.00001908	98
59	2732	137.00001908	98
59	2780	140.00001908	98
59	2795	141.00001908	98
59	2809	142.00001908	98
59	2841	145.00001908	98
59	2855	146.00001908	98
59	2870	147.00001908	98
59	2902	150.00001908	98
59	2916	151.00001908	98
59	2930	152.00001908	98
59	2962	155.00001908	98
59	2977	156.00001908	98
59	2992	157.00001908	98
59	3097	160.00001908	98
59	3111	161.00001908	98
59	3126	162.00001908	98
59	3152	165.00001908	98
59	3164	166.00001908	98
59	3176	167.00001908	98
59	3202	170.00001908	98
59	3214	171.00001908	98
59	3226	172.00001908	98
59	3251	175.00001908	98
59	3263	176.00001908	98
59	3275	177.00001908	98
59	3300	180.00001908	98
59	3312	181.00001908	98
59	3324	182.00001908	98
59	3349	185.00001908	98
59	3361	186.00001908	98
59	3373	187.00001908	98
59	3398	190.00001908	98
59	3410	191.00001908	98
59	3422	192.00001908	98
59	3447	195.00001908	98
59	3459	196.00001908	98
59	3471	197.00001908	98
59	3496	200.00001908	98
59	3508	201.00001908	98
59	3520	202.00001908	98
59	3545	205.00001908	98
59	3557	206.00001908	98
59	3569	207.00001908	98
59	3594	210.00001908	98
59	3606	211.00001908	98
59	3618	212.00001908	98
59	3643	215.00001908	98
59	3655	216.00001908	98
59	3667	217.00001908	98
59	3692	220.00001908	98
59	3704	221.00001908	98
59	3716	222.00001908	98
59	3741	225.00001908	98
59	3753	226.00001908	98
59	3765	227.00001908	98
59	3790	230.00001908	98
59	3802	231.00001908	98
59	3814	232.00001908	98
59	3839	235.00001908	98
59	3851	236.00001908	98
59	3863	237.00001908	98
59	3888	240.00001908	98
59	3900	241.00001908	98
59	3912	242.00001908	98
59	3937	245.00001908	98
59	3949	246.00001908	98
59	3961	247.00001908	98
59	3986	250.00001908	98
59	3998	251.00001908	98
59	4010	252.00001908	98
59	4035	255.00001908	98
59	4047	256.00001908	98
59	4059	257.00001908	98
59	4084	260.00001908	98
59	4096	261.00001908	98
59	4108	262.00001908	98
59	4133	265.00001908	98
59	4145	266.00001908	98
59	4157	267.00001908	98
59	4182	270.00001908	98
59	4194	271.00001908	98
59	4206	272.00001908	98
59	4231	275.00001908	98
59	4243	276.00001908	98
59	4255	277.00001908	98
59	4280	280.00001908	98
59	4292	281.00001908	98
59	4304	282.00001908	98
59	4329	285.00001908	98
59	4341	286.00001908	98
59	4353	287.00001908	98
59	4378	290.00001908	98
59	4390	291.00001908	98
59	4402	292.00001908	98
59	4427	295.00001908	98
59	4439	296.00001908	98
59	4451	297.00001908	98
60	213	5.00001908	98
60	227	6.00001908	98
60	241	7.00001908	98
60	272	10.00001908	98
60	286	11.00001908	98
60	300	12.00001908	98
60	331	15.00001908	98
60	345	16.00001908	98
60	359	17.00001908	98
60	428	20.00001908	98
60	442	21.00001908	98
60	456	22.00001908	98
60	487	25.00001908	98
60	501	26.00001908	98
60	515	27.00001908	98
60	546	30.00001908	98
60	560	31.00001908	98
60	574	32.00001908	98
60	605	35.00001908	98
60	619	36.00001908	98
60	648	37.00001908	98
60	695	40.00001908	98
60	709	41.00001908	98
60	723	42.00001908	98
60	754	45.00001908	98
60	768	46.00001908	98
60	782	47.00001908	98
60	813	50.00001908	98
60	827	51.00001908	98
60	841	52.00001908	98
60	873	55.00001908	98
60	887	56.00001908	98
60	901	57.00001908	98
60	1014	60.00001908	98
60	1028	61.00001908	98
60	1042	62.00001908	98
60	1073	65.00001908	98
60	1087	66.00001908	98
60	1101	67.00001908	98
60	1132	70.00001908	98
60	1146	71.00001908	98
60	1160	72.00001908	98
60	1191	75.00001908	98
60	1206	76.00001908	98
60	1220	77.00001908	98
60	1292	80.00001908	98
60	1306	81.00001908	98
60	1361	82.00001908	98
60	1433	85.00001908	98
60	1447	86.00001908	98
60	1461	87.00001908	98
60	1533	90.00001908	98
60	1588	91.00001908	98
60	1602	92.00001908	98
60	1674	95.00001908	98
60	1688	96.00001908	98
60	1743	97.00001908	98
60	1815	100.00001908	98
60	1829	101.00001908	98
60	1843	102.00001908	98
60	1915	105.00001908	98
60	1970	106.00001908	98
60	1984	107.00001908	98
60	2056	110.00001908	98
60	2070	111.00001908	98
60	2125	112.00001908	98
60	2198	115.00001908	98
60	2212	116.00001908	98
60	2227	117.00001908	98
60	2300	120.00001908	98
60	2355	121.00001908	98
60	2369	122.00001908	98
60	2442	125.00001908	98
60	2458	126.00001908	98
60	2513	127.00001908	98
60	2586	130.00001908	98
60	2600	131.00001908	98
60	2615	132.00001908	98
60	2688	135.00001908	98
60	2718	136.00001908	98
60	2732	137.00001908	98
60	2780	140.00001908	98
60	2795	141.00001908	98
60	2809	142.00001908	98
60	2841	145.00001908	98
60	2855	146.00001908	98
60	2870	147.00001908	98
60	2902	150.00001908	98
60	2916	151.00001908	98
60	2930	152.00001908	98
60	2962	155.00001908	98
60	2977	156.00001908	98
60	2992	157.00001908	98
60	3097	160.00001908	98
60	3111	161.00001908	98
60	3126	162.00001908	98
60	3152	165.00001908	98
60	3164	166.00001908	98
60	3176	167.00001908	98
60	3202	170.00001908	98
60	3214	171.00001908	98
60	3226	172.00001908	98
60	3251	175.00001908	98
60	3263	176.00001908	98
60	3275	177.00001908	98
60	3300	180.00001908	98
60	3312	181.00001908	98
60	3324	182.00001908	98
60	3349	185.00001908	98
60	3361	186.00001908	98
60	3373	187.00001908	98
60	3398	190.00001908	98
60	3410	191.00001908	98
60	3422	192.00001908	98
60	3447	195.00001908	98
60	3459	196.00001908	98
60	3471	197.00001908	98
60	3496	200.00001908	98
60	3508	201.00001908	98
60	3520	202.00001908	98
60	3545	205.00001908	98
60	3557	206.00001908	98
60	3569	207.00001908	98
60	3594	210.00001908	98
60	3606	211.00001908	98
60	3618	212.00001908	98
60	3643	215.00001908	98
60	3655	216.00001908	98
60	3667	217.00001908	98
60	3692	220.00001908	98
60	3704	221.00001908	98
60	3716	222.00001908	98
60	3741	225.00001908	98
60	3753	226.00001908	98
60	3765	227.00001908	98
60	3790	230.00001908	98
60	3802	231.00001908	98
60	3814	232.00001908	98
60	3839	235.00001908	98
60	3851	236.00001908	98
60	3863	237.00001908	98
60	3888	240.00001908	98
60	3900	241.00001908	98
60	3912	242.00001908	98
60	3937	245.00001908	98
60	3949	246.00001908	98
60	3961	247.00001908	98
60	3986	250.00001908	98
60	3998	251.00001908	98
60	4010	252.00001908	98
60	4035	255.00001908	98
60	4047	256.00001908	98
60	4059	257.00001908	98
60	4084	260.00001908	98
60	4096	261.00001908	98
60	4108	262.00001908	98
60	4133	265.00001908	98
60	4145	266.00001908	98
60	4157	267.00001908	98
60	4182	270.00001908	98
60	4194	271.00001908	98
60	4206	272.00001908	98
60	4231	275.00001908	98
60	4243	276.00001908	98
60	4255	277.00001908	98
60	4280	280.00001908	98
60	4292	281.00001908	98
60	4304	282.00001908	98
60	4329	285.00001908	98
60	4341	286.00001908	98
60	4353	287.00001908	98
60	4378	290.00001908	98
60	4390	291.00001908	98
60	4402	292.00001908	98
60	4427	295.00001908	98
60	4439	296.00001908	98
60	4451	297.00001908	98
61	214	5.00001908	80
61	228	6.00001908	80
61	242	7.00001908	80
61	273	10.00001908	80
61	287	11.00001908	80
61	301	12.00001908	80
61	332	15.00001908	80
61	346	16.00001908	80
61	360	17.00001908	80
61	429	20.00001908	80
61	443	21.00001908	80
61	457	22.00001908	80
61	488	25.00001908	80
61	502	26.00001908	80
61	516	27.00001908	80
61	547	30.00001908	80
61	561	31.00001908	80
61	575	32.00001908	80
61	606	35.00001908	80
61	620	36.00001908	80
61	649	37.00001908	80
61	696	40.00001908	80
61	710	41.00001908	80
61	724	42.00001908	80
61	755	45.00001908	80
61	769	46.00001908	80
61	783	47.00001908	80
61	814	50.00001908	80
61	828	51.00001908	80
61	842	52.00001908	80
61	874	55.00001908	80
61	888	56.00001908	80
61	902	57.00001908	80
61	1015	60.00001908	80
61	1029	61.00001908	80
61	1043	62.00001908	80
61	1074	65.00001908	80
61	1088	66.00001908	80
61	1102	67.00001908	80
61	1133	70.00001908	80
61	1147	71.00001908	80
61	1161	72.00001908	80
61	1192	75.00001908	80
61	1207	76.00001908	80
61	1221	77.00001908	80
61	1293	80.00001908	80
61	1307	81.00001908	80
61	1362	82.00001908	80
61	1434	85.00001908	80
61	1448	86.00001908	80
61	1462	87.00001908	80
61	1534	90.00001908	80
61	1589	91.00001908	80
61	1603	92.00001908	80
61	1675	95.00001908	80
61	1689	96.00001908	80
61	1744	97.00001908	80
61	1816	100.00001908	80
61	1830	101.00001908	80
61	1844	102.00001908	80
61	1916	105.00001908	80
61	1971	106.00001908	80
61	1985	107.00001908	80
61	2057	110.00001908	80
61	2071	111.00001908	80
61	2126	112.00001908	80
61	2199	115.00001908	80
61	2213	116.00001908	80
61	2228	117.00001908	80
61	2301	120.00001908	80
61	2356	121.00001908	80
61	2370	122.00001908	80
61	2443	125.00001908	80
61	2459	126.00001908	80
61	2514	127.00001908	80
61	2587	130.00001908	80
61	2601	131.00001908	80
61	2616	132.00001908	80
61	2689	135.00001908	80
61	2719	136.00001908	80
61	2733	137.00001908	80
61	2781	140.00001908	80
61	2796	141.00001908	80
61	2810	142.00001908	80
61	2842	145.00001908	80
61	2856	146.00001908	80
61	2871	147.00001908	80
61	2903	150.00001908	80
61	2917	151.00001908	80
61	2931	152.00001908	80
61	2963	155.00001908	80
61	2978	156.00001908	80
61	2993	157.00001908	80
61	3098	160.00001908	80
61	3112	161.00001908	80
61	3127	162.00001908	80
61	3153	165.00001908	80
61	3165	166.00001908	80
61	3177	167.00001908	80
61	3203	170.00001908	80
61	3215	171.00001908	80
61	3227	172.00001908	80
61	3252	175.00001908	80
61	3264	176.00001908	80
61	3276	177.00001908	80
61	3301	180.00001908	80
61	3313	181.00001908	80
61	3325	182.00001908	80
61	3350	185.00001908	80
61	3362	186.00001908	80
61	3374	187.00001908	80
61	3399	190.00001908	80
61	3411	191.00001908	80
61	3423	192.00001908	80
61	3448	195.00001908	80
61	3460	196.00001908	80
61	3472	197.00001908	80
61	3497	200.00001908	80
61	3509	201.00001908	80
61	3521	202.00001908	80
61	3546	205.00001908	80
61	3558	206.00001908	80
61	3570	207.00001908	80
61	3595	210.00001908	80
61	3607	211.00001908	80
61	3619	212.00001908	80
61	3644	215.00001908	80
61	3656	216.00001908	80
61	3668	217.00001908	80
61	3693	220.00001908	80
61	3705	221.00001908	80
61	3717	222.00001908	80
61	3742	225.00001908	80
61	3754	226.00001908	80
61	3766	227.00001908	80
61	3791	230.00001908	80
61	3803	231.00001908	80
61	3815	232.00001908	80
61	3840	235.00001908	80
61	3852	236.00001908	80
61	3864	237.00001908	80
61	3889	240.00001908	80
61	3901	241.00001908	80
61	3913	242.00001908	80
61	3938	245.00001908	80
61	3950	246.00001908	80
61	3962	247.00001908	80
61	3987	250.00001908	80
61	3999	251.00001908	80
61	4011	252.00001908	80
61	4036	255.00001908	80
61	4048	256.00001908	80
61	4060	257.00001908	80
61	4085	260.00001908	80
61	4097	261.00001908	80
61	4109	262.00001908	80
61	4134	265.00001908	80
61	4146	266.00001908	80
61	4158	267.00001908	80
61	4183	270.00001908	80
61	4195	271.00001908	80
61	4207	272.00001908	80
61	4232	275.00001908	80
61	4244	276.00001908	80
61	4256	277.00001908	80
61	4281	280.00001908	80
61	4293	281.00001908	80
61	4305	282.00001908	80
61	4330	285.00001908	80
61	4342	286.00001908	80
61	4354	287.00001908	80
61	4379	290.00001908	80
61	4391	291.00001908	80
61	4403	292.00001908	80
61	4428	295.00001908	80
61	4440	296.00001908	80
61	4452	297.00001908	80

