version 2
run Speed_30-0-20200520-15:41:43-3135
attr configname Speed_30
attr datetime 20200520-15:41:43
attr experiment Speed_30
attr inifile omnetppTestPmipv6.ini
attr iterationvars ""
attr iterationvarsf ""
attr measurement ""
attr network TestPmipv6
attr processid 3135
attr repetition 0
attr replication #0
attr resultdir results
attr runnumber 0
attr seedset 0
param *.manager.launchConfig "xmldoc(\"notlsvm30.launchd.xml\")"
param *.manager.seed 0
param *.n 3
param **.debug false
param **.coreDebug false
param *.playgroundSizeX 1400m
param *.playgroundSizeY 700m
param *.playgroundSizeZ 50m
param *.annotations.draw true
param *.obstacles.debug false
param *.obstacles.obstacles "xmldoc(\"config.xml\", \"//AnalogueModel[@type='SimpleObstacleShadowing']/obstacles\")"
param *.manager.updateInterval 0.5s
param *.manager.host "\"localhost\""
param *.manager.port 9999
param *.manager.autoShutdown true
param *.manager.launchConfig "xmldoc(\"test2.launchd.xml\")"
param **.rsu[*].numApps 1
param *.rsu[0].mobility.x 200
param *.rsu[0].mobility.y 130
param *.rsu[0].mobility.z 1.895
param *.rsu[1].mobility.x 650
param *.rsu[1].mobility.y 130
param *.rsu[1].mobility.z 1.895
param *.rsu[2].mobility.x 1100
param *.rsu[2].mobility.y 130
param *.rsu[2].mobility.z 1.895
param *.rsu[*].applType "\"TraCIDemoRSU11p\""
param **.rsu[*].app[*].typename "\"UdpSink\""
param **.rsu[*].app[0].destPort 1000
param **.rsu[*].app[0].messageLength 1000B
param **.rsu[*].app[0].sendInterval "uniform(5s, 10s)"
param **.rsu[*].app[0].sendInterval 100ms
param **.rsu[*].app[0].destAddresses "\"node[3]\""
param **.rsu[*].app[0].localAddress "\"\""
param **.rsu[*].app[0].localPort 1000
param **.rsu[*].app[0].replyDelay 0s
param **.app[*].dataTransferMode "\"object\""
param **.eth[*].queue.typename "\"EtherQosQueue\""
param **.eth[*].queue.dataQueue.typename "\"DropTailQueue\""
param **.eth[*].queue.dataQueue.frameCapacity 10
param **.eth[*].mac.duplexMode true
param *.rsu[*].app[0].headerLength "80 bit"
param *.rsu[*].app[0].sendBeacons false
param *.rsu[*].app[0].dataOnSch false
param *.rsu[*].app[0].beaconInterval 1s
param *.rsu[*].app[0].beaconUserPriority 7
param *.rsu[*].app[0].dataUserPriority 5
param *.connectionManager.sendDirect true
param *.connectionManager.maxInterfDist 700m
param *.connectionManager.drawMaxIntfDist true
param *.**.nic.mac1609_4.useServiceChannel false
param *.node[*].nic.mac1609_4.txPower 8mW
param *.rsu[*].nic.mac1609_4.txPower 8mW
param *.**.nic.mac1609_4.bitrate 6Mbps
param *.**.nic.phy80211p.sensitivity -89dBm
param *.**.nic.phy80211p.useThermalNoise false
param *.**.nic.phy80211p.thermalNoise -110dBm
param *.**.nic.phy80211p.decider "xmldoc(\"config.xml\")"
param *.**.nic.phy80211p.analogueModels "xmldoc(\"config.xml\")"
param *.**.nic.phy80211p.usePropagationDelay true
param *.**.nic.phy80211p.antenna "xmldoc(\"antenna.xml\", \"/root/Antenna[@id='monopole']\")"
param *.node[*].applType "\"TraCIDemo11p\""
param *.node[*].appl.headerLength "80 bit"
param *.node[*].appl.sendBeacons false
param *.node[*].appl.dataOnSch false
param *.node[*].appl.beaconInterval 1s
param *.node[*].numApps 1
param **.node[*].app[*].typename "\"UdpBasicApp\""
param **.node[*].app[0].destPort 1000
param **.node[*].app[0].messageLength 1000B
param **.node[*].app[0].sendInterval 100ms
param **.node[*].app[0].destAddresses "\"rsu[0]\""
param **.node[*].app[0].connectPort 1000
param **.node[0].app[0].startTime uniform(1700s,1700.5s)
param **.node[1].app[0].startTime uniform(1700.5s,1800s)
param **.node[2].app[0].startTime uniform(1800s,1800.5s)
param **.node[3].app[0].startTime uniform(1800.5s,1900s)
param **.node[*].app[0].sendInterval 200ms
param **.node[*].app[0].numCommands int(exponential(10))
param **.node[*].app[0].commandLength intWithUnit(exponential(10B))
param **.node[*].app[0].keyPressDelay exponential(0.1s)
param **.node[*].app[0].commandOutputLength intWithUnit(exponential(40B))
param **.node[*].app[0].thinkTime truncnormal(2s,3s)
param **.node[*].app[0].idleInterval truncnormal(3600s,1200s)
param **.node[*].app[0].reconnectInterval 30s
param *.node[*].veinsmobilityType.debug true
param *.node[*].veinsmobility.x 0
param *.node[*].veinsmobility.y 0
param *.node[*].veinsmobility.z 1.895
param *.node[*0].veinsmobility.accidentCount 1
param *.node[*0].veinsmobility.accidentStart 75s
param *.node[*0].veinsmobility.accidentDuration 50s
param **.CN*.numApps 1
param **.CN*.app[*].typename "\"PingApp\""
param **.CN[0].app[0].destAddr "\"node[0]\""
param **.CN[1].app[0].destAddr "\"\""
param **.CN*.app[0].srcAddr "\"\""
param **.CN*.app[0].packetSize 56B
param **.CN*.app[0].sendInterval 5s
param **.CN*.app[0].hopLimit 32
param **.CN[0].app[0].count -1
param **.CN[1].app[0].count 0
param **.CN*.app[0].startTime 5s
param **.CN*.app[0].stopTime 2000s
param **.CN*.app[0].printPing true

vector 0 TestPmipv6.rsu[0].eth[0].queue.pauseQueue queueLength:vector ETV
attr interpolationmode sample-hold
attr title "queue length, vector"
vector 1 TestPmipv6.rsu[0].eth[0].queue.dataQueue queueLength:vector ETV
attr interpolationmode sample-hold
attr title "queue length, vector"
vector 2 TestPmipv6.rsu[0].eth[1].queue.pauseQueue queueLength:vector ETV
attr interpolationmode sample-hold
attr title "queue length, vector"
vector 3 TestPmipv6.rsu[0].eth[1].queue.dataQueue queueLength:vector ETV
attr interpolationmode sample-hold
attr title "queue length, vector"
vector 4 TestPmipv6.rsu[1].eth[0].queue.pauseQueue queueLength:vector ETV
attr interpolationmode sample-hold
attr title "queue length, vector"
vector 5 TestPmipv6.rsu[1].eth[0].queue.dataQueue queueLength:vector ETV
attr interpolationmode sample-hold
attr title "queue length, vector"
vector 6 TestPmipv6.rsu[1].eth[1].queue.pauseQueue queueLength:vector ETV
attr interpolationmode sample-hold
attr title "queue length, vector"
vector 7 TestPmipv6.rsu[1].eth[1].queue.dataQueue queueLength:vector ETV
attr interpolationmode sample-hold
attr title "queue length, vector"
vector 8 TestPmipv6.rsu[1].eth[2].queue.pauseQueue queueLength:vector ETV
attr interpolationmode sample-hold
attr title "queue length, vector"
vector 9 TestPmipv6.rsu[1].eth[2].queue.dataQueue queueLength:vector ETV
attr interpolationmode sample-hold
attr title "queue length, vector"
vector 10 TestPmipv6.rsu[2].eth[0].queue.pauseQueue queueLength:vector ETV
attr interpolationmode sample-hold
attr title "queue length, vector"
vector 11 TestPmipv6.rsu[2].eth[0].queue.dataQueue queueLength:vector ETV
attr interpolationmode sample-hold
attr title "queue length, vector"
vector 12 TestPmipv6.rsu[2].eth[1].queue.pauseQueue queueLength:vector ETV
attr interpolationmode sample-hold
attr title "queue length, vector"
vector 13 TestPmipv6.rsu[2].eth[1].queue.dataQueue queueLength:vector ETV
attr interpolationmode sample-hold
attr title "queue length, vector"
vector 14 TestPmipv6.MA[0].eth[0].queue.pauseQueue queueLength:vector ETV
attr interpolationmode sample-hold
attr title "queue length, vector"
vector 15 TestPmipv6.MA[0].eth[0].queue.dataQueue queueLength:vector ETV
attr interpolationmode sample-hold
attr title "queue length, vector"
vector 16 TestPmipv6.MA[0].eth[1].queue.pauseQueue queueLength:vector ETV
attr interpolationmode sample-hold
attr title "queue length, vector"
vector 17 TestPmipv6.MA[0].eth[1].queue.dataQueue queueLength:vector ETV
attr interpolationmode sample-hold
attr title "queue length, vector"
vector 18 TestPmipv6.MA[0].eth[2].queue.pauseQueue queueLength:vector ETV
attr interpolationmode sample-hold
attr title "queue length, vector"
vector 19 TestPmipv6.MA[0].eth[2].queue.dataQueue queueLength:vector ETV
attr interpolationmode sample-hold
attr title "queue length, vector"
vector 20 TestPmipv6.MA[0].eth[3].queue.pauseQueue queueLength:vector ETV
attr interpolationmode sample-hold
attr title "queue length, vector"
vector 21 TestPmipv6.MA[0].eth[3].queue.dataQueue queueLength:vector ETV
attr interpolationmode sample-hold
attr title "queue length, vector"
vector 22 TestPmipv6.CN[0].eth[0].queue.pauseQueue queueLength:vector ETV
attr interpolationmode sample-hold
attr title "queue length, vector"
vector 23 TestPmipv6.CN[0].eth[0].queue.dataQueue queueLength:vector ETV
attr interpolationmode sample-hold
attr title "queue length, vector"
0	0	0	0
1	0	0	0
2	0	0	0
3	0	0	0
4	0	0	0
5	0	0	0
6	0	0	0
7	0	0	0
8	0	0	0
9	0	0	0
10	0	0	0
11	0	0	0
12	0	0	0
13	0	0	0
14	0	0	0
15	0	0	0
16	0	0	0
17	0	0	0
18	0	0	0
19	0	0	0
20	0	0	0
21	0	0	0
22	0	0	0
23	0	0	0
vector 24 TestPmipv6.node[0].veinsmobility posx ETV
vector 25 TestPmipv6.node[0].veinsmobility posy ETV
vector 26 TestPmipv6.node[0].veinsmobility speed ETV
vector 27 TestPmipv6.node[0].veinsmobility acceleration ETV
vector 28 TestPmipv6.node[0].veinsmobility co2emission ETV
vector 29 TestPmipv6.CN[0].eth[0].encap encapPk:vector(packetBytes) ETV
attr interpolationmode none
attr source encapPk
attr title "packets encapsulated, vector(packetBytes)"
vector 30 TestPmipv6.CN[0].eth[0].queue.dataQueue packetReceived:vector(packetBytes) ETV
attr interpolationmode none
attr title "received packets, vector(packetBytes)"
vector 31 TestPmipv6.CN[0].eth[0].queue.dataQueue queueingTime:vector ETV
attr interpolationmode none
attr title "queueing time, vector"
vector 32 TestPmipv6.CN[0].eth[0].mac packetReceivedFromUpper:vector(packetBytes) ETV
attr interpolationmode none
attr source packetReceivedFromUpper
attr title "packet bytes from higher layer, vector(packetBytes)"
vector 33 TestPmipv6.CN[0].eth[0].mac txPk:vector(packetBytes) ETV
attr interpolationmode none
attr source packetSentToLower
attr title "packets transmitted, vector(packetBytes)"
vector 34 TestPmipv6.MA[0].eth[3].mac rxPkOk:vector(packetBytes) ETV
attr interpolationmode none
attr source rxPkOk
attr title "packets received OK, vector(packetBytes)"
vector 35 TestPmipv6.MA[0].eth[3].mac passedUpPk:vector(packetBytes) ETV
attr interpolationmode none
attr source packetSentToUpper
attr title "packets passed to higher layer, vector(packetBytes)"
vector 36 TestPmipv6.MA[0].eth[3].encap decapPk:vector(packetBytes) ETV
attr interpolationmode none
attr source decapPk
attr title "packets decapsulated, vector(packetBytes)"
vector 37 TestPmipv6.MA[0].eth[3].encap encapPk:vector(packetBytes) ETV
attr interpolationmode none
attr source encapPk
attr title "packets encapsulated, vector(packetBytes)"
vector 38 TestPmipv6.MA[0].eth[3].queue.dataQueue packetReceived:vector(packetBytes) ETV
attr interpolationmode none
attr title "received packets, vector(packetBytes)"
vector 39 TestPmipv6.MA[0].eth[3].queue.dataQueue queueingTime:vector ETV
attr interpolationmode none
attr title "queueing time, vector"
vector 40 TestPmipv6.MA[0].eth[3].mac packetReceivedFromUpper:vector(packetBytes) ETV
attr interpolationmode none
attr source packetReceivedFromUpper
attr title "packet bytes from higher layer, vector(packetBytes)"
vector 41 TestPmipv6.MA[0].eth[3].mac txPk:vector(packetBytes) ETV
attr interpolationmode none
attr source packetSentToLower
attr title "packets transmitted, vector(packetBytes)"
vector 42 TestPmipv6.CN[0].eth[0].mac rxPkOk:vector(packetBytes) ETV
attr interpolationmode none
attr source rxPkOk
attr title "packets received OK, vector(packetBytes)"
vector 43 TestPmipv6.CN[0].eth[0].mac passedUpPk:vector(packetBytes) ETV
attr interpolationmode none
attr source packetSentToUpper
attr title "packets passed to higher layer, vector(packetBytes)"
vector 44 TestPmipv6.CN[0].eth[0].encap decapPk:vector(packetBytes) ETV
attr interpolationmode none
attr source decapPk
attr title "packets decapsulated, vector(packetBytes)"
vector 45 TestPmipv6.rsu[0].eth[0].encap encapPk:vector(packetBytes) ETV
attr interpolationmode none
attr source encapPk
attr title "packets encapsulated, vector(packetBytes)"
vector 46 TestPmipv6.rsu[0].eth[0].queue.dataQueue packetReceived:vector(packetBytes) ETV
attr interpolationmode none
attr title "received packets, vector(packetBytes)"
vector 47 TestPmipv6.rsu[0].eth[0].queue.dataQueue queueingTime:vector ETV
attr interpolationmode none
attr title "queueing time, vector"
vector 48 TestPmipv6.rsu[0].eth[0].mac packetReceivedFromUpper:vector(packetBytes) ETV
attr interpolationmode none
attr source packetReceivedFromUpper
attr title "packet bytes from higher layer, vector(packetBytes)"
vector 49 TestPmipv6.rsu[0].eth[0].mac txPk:vector(packetBytes) ETV
attr interpolationmode none
attr source packetSentToLower
attr title "packets transmitted, vector(packetBytes)"
vector 50 TestPmipv6.MA[0].eth[0].mac rxPkOk:vector(packetBytes) ETV
attr interpolationmode none
attr source rxPkOk
attr title "packets received OK, vector(packetBytes)"
vector 51 TestPmipv6.MA[0].eth[0].mac passedUpPk:vector(packetBytes) ETV
attr interpolationmode none
attr source packetSentToUpper
attr title "packets passed to higher layer, vector(packetBytes)"
vector 52 TestPmipv6.MA[0].eth[0].encap decapPk:vector(packetBytes) ETV
attr interpolationmode none
attr source decapPk
attr title "packets decapsulated, vector(packetBytes)"
vector 53 TestPmipv6.CN[0].app[0] pingTxSeq:vector ETV
attr interpolationmode none
attr title "ping tx seq, vector"
vector 54 TestPmipv6.MA[0].eth[2].encap encapPk:vector(packetBytes) ETV
attr interpolationmode none
attr source encapPk
attr title "packets encapsulated, vector(packetBytes)"
vector 55 TestPmipv6.MA[0].eth[2].queue.dataQueue packetReceived:vector(packetBytes) ETV
attr interpolationmode none
attr title "received packets, vector(packetBytes)"
vector 56 TestPmipv6.MA[0].eth[2].queue.dataQueue queueingTime:vector ETV
attr interpolationmode none
attr title "queueing time, vector"
vector 57 TestPmipv6.MA[0].eth[2].mac packetReceivedFromUpper:vector(packetBytes) ETV
attr interpolationmode none
attr source packetReceivedFromUpper
attr title "packet bytes from higher layer, vector(packetBytes)"
vector 58 TestPmipv6.MA[0].eth[2].mac txPk:vector(packetBytes) ETV
attr interpolationmode none
attr source packetSentToLower
attr title "packets transmitted, vector(packetBytes)"
vector 59 TestPmipv6.rsu[2].eth[0].mac rxPkOk:vector(packetBytes) ETV
attr interpolationmode none
attr source rxPkOk
attr title "packets received OK, vector(packetBytes)"
vector 60 TestPmipv6.rsu[2].eth[0].mac passedUpPk:vector(packetBytes) ETV
attr interpolationmode none
attr source packetSentToUpper
attr title "packets passed to higher layer, vector(packetBytes)"
vector 61 TestPmipv6.rsu[2].eth[0].encap decapPk:vector(packetBytes) ETV
attr interpolationmode none
attr source decapPk
attr title "packets decapsulated, vector(packetBytes)"
vector 62 TestPmipv6.rsu[1].eth[0].encap encapPk:vector(packetBytes) ETV
attr interpolationmode none
attr source encapPk
attr title "packets encapsulated, vector(packetBytes)"
vector 63 TestPmipv6.rsu[1].eth[0].queue.dataQueue packetReceived:vector(packetBytes) ETV
attr interpolationmode none
attr title "received packets, vector(packetBytes)"
vector 64 TestPmipv6.rsu[1].eth[0].queue.dataQueue queueingTime:vector ETV
attr interpolationmode none
attr title "queueing time, vector"
vector 65 TestPmipv6.rsu[1].eth[0].mac packetReceivedFromUpper:vector(packetBytes) ETV
attr interpolationmode none
attr source packetReceivedFromUpper
attr title "packet bytes from higher layer, vector(packetBytes)"
vector 66 TestPmipv6.rsu[1].eth[0].mac txPk:vector(packetBytes) ETV
attr interpolationmode none
attr source packetSentToLower
attr title "packets transmitted, vector(packetBytes)"
vector 67 TestPmipv6.MA[0].eth[1].mac rxPkOk:vector(packetBytes) ETV
attr interpolationmode none
attr source rxPkOk
attr title "packets received OK, vector(packetBytes)"
vector 68 TestPmipv6.MA[0].eth[1].mac passedUpPk:vector(packetBytes) ETV
attr interpolationmode none
attr source packetSentToUpper
attr title "packets passed to higher layer, vector(packetBytes)"
vector 69 TestPmipv6.MA[0].eth[1].encap decapPk:vector(packetBytes) ETV
attr interpolationmode none
attr source decapPk
attr title "packets decapsulated, vector(packetBytes)"
1	124	1.989549797552	1
1	124	1.989549797552	0
5	1200	67.620653994487	1
5	1200	67.620653994487	0
19	208	5.0000105	1
19	208	5.0000105	0
19	223	6.0000105	1
19	223	6.0000105	0
19	237	7.0000105	1
19	237	7.0000105	0
19	267	10.0000105	1
19	267	10.0000105	0
19	282	11.0000105	1
19	282	11.0000105	0
19	296	12.0000105	1
19	296	12.0000105	0
19	326	15.0000105	1
19	326	15.0000105	0
19	341	16.0000105	1
19	341	16.0000105	0
19	355	17.0000105	1
19	355	17.0000105	0
19	423	20.0000105	1
19	423	20.0000105	0
19	438	21.0000105	1
19	438	21.0000105	0
19	452	22.0000105	1
19	452	22.0000105	0
19	482	25.0000105	1
19	482	25.0000105	0
19	497	26.0000105	1
19	497	26.0000105	0
19	511	27.0000105	1
19	511	27.0000105	0
19	541	30.0000105	1
19	541	30.0000105	0
19	556	31.0000105	1
19	556	31.0000105	0
19	570	32.0000105	1
19	570	32.0000105	0
19	600	35.0000105	1
19	600	35.0000105	0
19	615	36.0000105	1
19	615	36.0000105	0
19	667	37.0000105	1
19	667	37.0000105	0
19	734	40.0000105	1
19	734	40.0000105	0
19	749	41.0000105	1
19	749	41.0000105	0
19	763	42.0000105	1
19	763	42.0000105	0
19	830	45.0000105	1
19	830	45.0000105	0
19	859	46.0000105	1
19	859	46.0000105	0
19	873	47.0000105	1
19	873	47.0000105	0
19	919	50.0000105	1
19	919	50.0000105	0
19	934	51.0000105	1
19	934	51.0000105	0
19	948	52.0000105	1
19	948	52.0000105	0
19	979	55.0000105	1
19	979	55.0000105	0
19	994	56.0000105	1
19	994	56.0000105	0
19	1008	57.0000105	1
19	1008	57.0000105	0
19	1038	60.0000105	1
19	1038	60.0000105	0
19	1053	61.0000105	1
19	1053	61.0000105	0
19	1067	62.0000105	1
19	1067	62.0000105	0
19	1097	65.0000105	1
19	1097	65.0000105	0
19	1112	66.0000105	1
19	1112	66.0000105	0
19	1127	67.0000105	1
19	1127	67.0000105	0
19	1213	67.620661934487	1
19	1213	67.620661934487	0
19	1247	68.620661934487	1
19	1247	68.620661934487	0
19	1261	69.620661934487	1
19	1261	69.620661934487	0
19	1285	70.0000105	1
19	1285	70.0000105	0
19	1301	71.0000105	1
19	1301	71.0000105	0
19	1316	72.0000105	1
19	1316	72.0000105	0
19	1347	75.0000105	1
19	1347	75.0000105	0
19	1363	76.0000105	1
19	1363	76.0000105	0
19	1377	77.0000105	1
19	1377	77.0000105	0
19	1408	80.0000105	1
19	1408	80.0000105	0
19	1423	81.0000105	1
19	1423	81.0000105	0
19	1437	82.0000105	1
19	1437	82.0000105	0
19	1467	85.0000105	1
19	1467	85.0000105	0
19	1482	86.0000105	1
19	1482	86.0000105	0
19	1496	87.0000105	1
19	1496	87.0000105	0
19	1567	90.0000105	1
19	1567	90.0000105	0
19	1623	91.0000105	1
19	1623	91.0000105	0
19	1637	92.0000105	1
19	1637	92.0000105	0
21	32	1.565950000631	1
21	32	1.565950000631	0
21	56	1.565966520631	1
21	56	1.565966520631	0
23	21	1.565943340631	1
23	21	1.565943340631	0
23	44	1.565958580631	1
23	44	1.565958580631	0
23	197	5	1
23	197	5	0
23	256	10	1
23	256	10	0
23	315	15	1
23	315	15	0
23	412	20	1
23	412	20	0
23	471	25	1
23	471	25	0
23	530	30	1
23	530	30	0
23	589	35	1
23	589	35	0
23	723	40	1
23	723	40	0
23	819	45	1
23	819	45	0
23	908	50	1
23	908	50	0
23	968	55	1
23	968	55	0
23	1027	60	1
23	1027	60	0
23	1086	65	1
23	1086	65	0
23	1274	70	1
23	1274	70	0
23	1336	75	1
23	1336	75	0
23	1397	80	1
23	1397	80	0
23	1456	85	1
23	1456	85	0
23	1556	90	1
23	1556	90	0
24	12	0.5	44.748205528039
24	14	1	44.748205528039
24	16	1.5	48.872261044918
24	184	2	53.007854547563
24	186	2.5	57.141117342317
24	187	3	61.267591739779
24	188	3.5	65.397925709149
24	189	4	69.545580664618
24	190	4.5	73.66571283382
24	192	5	77.781371855466
24	217	5.5	81.914746535774
24	218	6	86.047293636118
24	231	6.5	90.178249504725
24	232	7	94.313236181565
24	245	7.5	98.461749327605
24	246	8	102.21186818947
24	248	8.5	105.24208232605
24	249	9	107.64513132283
24	250	9.5	109.52540209565
24	252	10	111.74382546238
24	276	10.5	114.59171699172
24	277	11	117.97506406907
24	290	11.5	121.81213446279
24	291	12	125.93943831688
24	304	12.5	130.08199809416
24	305	13	134.22387510213
24	307	13.5	138.36339875451
24	308	14	142.49344871106
24	309	14.5	146.62983925712
24	311	15	150.74702590158
24	335	15.5	154.87691522832
24	336	16	159.02064258737
24	349	16.5	163.16941235509
24	350	17	167.29420731181
24	363	17.5	171.43348929493
24	364	18	175.5601066786
24	366	18.5	179.69291178573
24	405	19	183.83206162894
24	406	19.5	187.96457244059
24	408	20	192.10541644353
24	432	20.5	196.25401605251
24	433	21	200.30086048294
24	446	21.5	203.70912848016
24	447	22	206.43830084478
24	460	22.5	208.56092265878
24	461	23	210.43778274351
24	463	23.5	212.92101449268
24	464	24	215.98112978462
24	465	24.5	219.49861515321
24	467	25	223.44378405241
24	491	25.5	227.57599274687
24	492	26	231.71418061592
24	505	26.5	235.85150402639
24	506	27	239.97840173747
24	519	27.5	244.12946527626
24	520	28	248.26875435784
24	522	28.5	252.3960574979
24	523	29	256.54029686313
24	524	29.5	260.6630281125
24	526	30	264.80512588028
24	550	30.5	268.92687216757
24	551	31	273.05711018646
24	564	31.5	277.20325872562
24	565	32	281.32166951872
24	578	32.5	285.4724771207
24	579	33	289.60107725781
24	581	33.5	293.72898669029
24	582	34	297.87119929765
24	583	34.5	301.71137568173
24	585	35	304.86183605989
24	609	35.5	307.36531297962
24	610	36	309.26904409639
24	623	36.5	311.32507704596
24	662	37	314.03045518478
24	675	37.5	317.26211621437
24	676	38	320.94027622841
24	678	38.5	325.0023364225
24	679	39	329.14822358973
24	680	39.5	333.28031388155
24	719	40	337.41029395153
24	743	40.5	341.56539324124
24	744	41	345.68844922301
24	757	41.5	349.8324507408
24	758	42	353.96239281164
24	771	42.5	358.08781884995
24	809	43	362.21745206923
24	811	43.5	366.35822309799
24	812	44	370.48465596647
24	813	44.5	374.61525310497
24	815	45	378.75157073447
24	839	45.5	382.88483655236
24	854	46	387.00911048127
24	867	46.5	391.13790558204
24	868	47	395.27051255382
24	881	47.5	399.38803819259
24	882	48	402.96709373468
24	884	48.5	405.86726299978
24	901	49	408.12475775141
24	902	49.5	409.995650018
24	904	50	412.38213677863
24	928	50.5	415.40234081416
24	929	51	418.95735220883
24	942	51.5	422.95201830481
24	943	52	427.08832612833
24	956	52.5	431.22776281687
24	957	53	435.37662440511
24	959	53.5	439.51492446272
24	961	54	443.63493377345
24	962	54.5	447.77779354335
24	964	55	451.89467349673
24	988	55.5	456.03265846548
24	989	56	460.14760232192
24	1002	56.5	464.26876992136
24	1003	57	468.40059296863
24	1016	57.5	472.53180585596
24	1017	58	476.64960524952
24	1019	58.5	480.78540817481
24	1020	59	484.93108033114
24	1021	59.5	489.06884096682
24	1023	60	493.21170566414
24	1047	60.5	497.33014175925
24	1048	61	501.24380628885
24	1061	61.5	504.48701680586
24	1062	62	507.06134092988
24	1075	62.5	509.05419777101
24	1076	63	510.97211139293
24	1078	63.5	513.54002501486
24	1079	64	516.65493642694
24	1080	64.5	520.21767394516
24	1082	65	524.25899958051
24	1106	65.5	528.40506404314
24	1107	66	532.53837496611
24	1120	66.5	536.67063807922
24	1122	67	540.80618836263
24	1135	67.5	544.9416490853
24	1240	68	549.07262927025
24	1242	68.5	553.22220010601
24	1255	69	557.35800612504
24	1256	69.5	561.48637624395
24	1270	70	565.62132161254
24	1294	70.5	569.75226368141
24	1296	71	573.89143191491
24	1309	71.5	578.02957430204
24	1311	72	582.16643474221
24	1324	72.5	586.30772641397
24	1325	73	590.4489052587
24	1327	73.5	594.57804293087
24	1328	74	598.70643064493
24	1329	74.5	602.40567402599
24	1332	75	605.40635985659
24	1357	75.5	607.77769313606
24	1358	76	609.25186587393
24	1371	76.5	609.62120406422
24	1372	77	609.62120406422
24	1385	77.5	609.62120406422
24	1387	78	609.62120406422
24	1389	78.5	609.62120406422
24	1390	79	609.62120406422
24	1391	79.5	609.62120406422
24	1393	80	609.62120406422
24	1417	80.5	609.62120406422
24	1418	81	609.62120406422
24	1431	81.5	609.62120406422
24	1432	82	609.62120406422
24	1445	82.5	609.62120406422
24	1446	83	609.62120406422
24	1448	83.5	609.62120406422
24	1449	84	609.62120406422
24	1450	84.5	609.62120406422
24	1452	85	609.62120406422
24	1476	85.5	609.62120406422
24	1477	86	609.62120406422
24	1490	86.5	609.62120406422
24	1491	87	609.62120406422
24	1504	87.5	609.62120406422
24	1546	88	609.62120406422
24	1548	88.5	609.62120406422
24	1549	89	609.62120406422
24	1550	89.5	609.62120406422
24	1552	90	609.62120406422
24	1576	90.5	609.62120406422
24	1618	91	609.62120406422
24	1631	91.5	609.62120406422
24	1632	92	609.62120406422
25	12	0.5	233.25
25	14	1	233.25
25	16	1.5	233.25
25	184	2	233.25
25	186	2.5	233.25
25	187	3	233.25
25	188	3.5	233.25
25	189	4	233.25
25	190	4.5	233.25
25	192	5	233.25
25	217	5.5	233.25
25	218	6	233.25
25	231	6.5	233.25
25	232	7	233.25
25	245	7.5	233.25
25	246	8	233.25
25	248	8.5	233.25
25	249	9	233.25
25	250	9.5	233.25
25	252	10	233.25
25	276	10.5	233.25
25	277	11	233.25
25	290	11.5	233.25
25	291	12	233.25
25	304	12.5	233.25
25	305	13	233.25
25	307	13.5	233.25
25	308	14	233.25
25	309	14.5	233.25
25	311	15	233.25
25	335	15.5	233.25
25	336	16	233.25
25	349	16.5	233.25
25	350	17	233.25
25	363	17.5	233.25
25	364	18	233.25
25	366	18.5	233.25
25	405	19	233.25
25	406	19.5	233.25
25	408	20	233.25
25	432	20.5	233.25
25	433	21	233.25
25	446	21.5	233.25
25	447	22	233.25
25	460	22.5	233.25
25	461	23	233.25
25	463	23.5	233.25
25	464	24	233.25
25	465	24.5	233.25
25	467	25	233.25
25	491	25.5	233.25
25	492	26	233.25
25	505	26.5	233.25
25	506	27	233.25
25	519	27.5	233.25
25	520	28	233.25
25	522	28.5	233.25
25	523	29	233.25
25	524	29.5	233.25
25	526	30	233.25
25	550	30.5	233.25
25	551	31	233.25
25	564	31.5	233.25
25	565	32	233.25
25	578	32.5	233.25
25	579	33	233.25
25	581	33.5	233.25
25	582	34	233.25
25	583	34.5	233.25
25	585	35	233.25
25	609	35.5	233.25
25	610	36	233.25
25	623	36.5	233.25
25	662	37	233.25
25	675	37.5	233.25
25	676	38	233.25
25	678	38.5	233.25
25	679	39	233.25
25	680	39.5	233.25
25	719	40	233.25
25	743	40.5	233.25
25	744	41	233.25
25	757	41.5	233.25
25	758	42	233.25
25	771	42.5	233.25
25	809	43	233.25
25	811	43.5	233.25
25	812	44	233.25
25	813	44.5	233.25
25	815	45	233.25
25	839	45.5	233.25
25	854	46	233.25
25	867	46.5	233.25
25	868	47	233.25
25	881	47.5	233.25
25	882	48	233.25
25	884	48.5	233.25
25	901	49	233.25
25	902	49.5	233.25
25	904	50	233.25
25	928	50.5	233.25
25	929	51	233.25
25	942	51.5	233.25
25	943	52	233.25
25	956	52.5	233.25
25	957	53	233.25
25	959	53.5	233.25
25	961	54	233.25
25	962	54.5	233.25
25	964	55	233.25
25	988	55.5	233.25
25	989	56	233.25
25	1002	56.5	233.25
25	1003	57	233.25
25	1016	57.5	233.25
25	1017	58	233.25
25	1019	58.5	233.25
25	1020	59	233.25
25	1021	59.5	233.25
25	1023	60	233.25
25	1047	60.5	233.25
25	1048	61	233.25
25	1061	61.5	233.25
25	1062	62	233.25
25	1075	62.5	233.25
25	1076	63	233.25
25	1078	63.5	233.25
25	1079	64	233.25
25	1080	64.5	233.25
25	1082	65	233.25
25	1106	65.5	233.25
25	1107	66	233.25
25	1120	66.5	233.25
25	1122	67	233.25
25	1135	67.5	233.25
25	1240	68	233.25
25	1242	68.5	233.25
25	1255	69	233.25
25	1256	69.5	233.25
25	1270	70	233.25
25	1294	70.5	233.25
25	1296	71	233.25
25	1309	71.5	233.25
25	1311	72	233.25
25	1324	72.5	233.25
25	1325	73	233.25
25	1327	73.5	233.25
25	1328	74	233.25
25	1329	74.5	233.25
25	1332	75	233.25
25	1357	75.5	233.25
25	1358	76	233.25
25	1371	76.5	233.25
25	1372	77	233.25
25	1385	77.5	233.25
25	1387	78	233.25
25	1389	78.5	233.25
25	1390	79	233.25
25	1391	79.5	233.25
25	1393	80	233.25
25	1417	80.5	233.25
25	1418	81	233.25
25	1431	81.5	233.25
25	1432	82	233.25
25	1445	82.5	233.25
25	1446	83	233.25
25	1448	83.5	233.25
25	1449	84	233.25
25	1450	84.5	233.25
25	1452	85	233.25
25	1476	85.5	233.25
25	1477	86	233.25
25	1490	86.5	233.25
25	1491	87	233.25
25	1504	87.5	233.25
25	1546	88	233.25
25	1548	88.5	233.25
25	1549	89	233.25
25	1550	89.5	233.25
25	1552	90	233.25
25	1576	90.5	233.25
25	1618	91	233.25
25	1631	91.5	233.25
25	1632	92	233.25
26	14	1	8.2782248764175
26	16	1.5	8.2946205013168
26	184	2	8.2834526022283
26	186	2.5	8.2709029677177
26	187	3	8.3240653123676
26	188	3.5	8.2854286001429
26	189	4	8.2201984211166
26	190	4.5	8.2291816021751
26	192	5	8.3179243249113
26	217	5.5	8.2634414803299
26	218	6	8.2793939476546
26	231	6.5	8.2375006368702
26	232	7	8.3308573262572
26	245	7.5	6.9436989000988
26	246	8	5.5342462232229
26	248	8.5	4.2811047657519
26	249	9	3.6568467334611
26	250	9.5	4.9568467334611
26	252	10	6.1305463462462
26	276	10.5	7.1696954968199
26	277	11	8.091260948712
26	290	11.5	8.257659456813
26	291	12	8.3015246735529
26	304	12.5	8.2455821981064
26	305	13	8.3077442936289
26	307	13.5	8.3315356865564
26	308	14	8.3208072078547
26	309	14.5	8.2670488316698
26	311	15	8.2371957344252
26	335	15.5	8.2059537250378
26	336	16	8.3178653971424
26	349	16.5	8.213929388527
26	350	17	8.2596418117003
26	363	17.5	8.2141260156447
26	364	18	8.2124914942814
26	366	18.5	8.2237955297103
26	405	19	8.2956772081733
26	406	19.5	8.261433207059
26	408	20	8.3326895873288
26	432	20.5	7.6485106659621
26	433	21	6.2988089305376
26	446	21.5	4.9180403374721
26	447	22	3.7559612194427
26	460	22.5	4.1864634983309
26	461	23	5.4864634983309
26	463	23.5	6.5000937403806
26	464	24	7.3536510712791
26	465	24.5	8.2626216774944
26	467	25	8.2781988442868
26	491	25.5	8.2721828155072
26	492	26	8.2955899107076
26	505	26.5	8.2191012151532
26	506	27	8.2592045614977
26	519	27.5	8.3289287378119
26	520	28	8.2772156035171
26	522	28.5	8.3206562095407
26	523	29	8.2284947810664
26	524	29.5	8.3203560189732
26	526	30	8.2034498896279
26	550	30.5	8.3284172800176
26	551	31	8.317203402288
26	564	31.5	8.2798184258274
26	565	32	8.3243082912701
26	578	32.5	8.2786902022028
26	579	33	8.2064822034274
26	581	33.5	8.2338614792672
26	582	34	7.1591019471133
26	583	34.5	5.7620067603829
26	585	35	4.4485924303902
26	609	35.5	3.332065899154
26	610	36	4.632065899154
26	623	36.5	5.9255177915174
26	662	37	6.7782099077439
26	675	37.5	7.6933795729636
26	676	38	8.2927471505797
26	678	38.5	8.3043823809495
26	679	39	8.2371583964459
26	680	39.5	8.2448291897557
26	719	40	8.2768258382419
26	743	40.5	8.2063674292613
26	744	41	8.3300917652591
26	757	41.5	8.2710824775642
26	758	42	8.216732732264
26	771	42.5	8.274018098958
26	809	43	8.3306153693834
26	811	43.5	8.2157247529567
26	812	44	8.2252637005054
26	813	44.5	8.2927581713341
26	815	45	8.3091673273842
26	839	45.5	8.270456879718
26	854	46	8.2382887456698
26	867	46.5	8.2088313887214
26	868	47	8.0665922345311
26	881	47.5	6.567509461564
26	882	48	5.2457724369739
26	884	48.5	4.0458638635303
26	901	49	3.9929735212512
26	902	49.5	5.2929735212512
26	904	50	6.4892513418355
26	928	50.5	7.5067078632181
26	929	51	8.215816433862
26	942	51.5	8.2381798114085
26	943	52	8.2953208210079
26	956	52.5	8.3251050219654
26	957	53	8.2462108495079
26	959	53.5	8.241845677904
26	961	54	8.2701684128486
26	962	54.5	8.2544581899133
26	964	55	8.3031787886836
26	988	55.5	8.2402770501833
26	989	56	8.2196425639132
26	1002	56.5	8.3080355114645
26	1003	57	8.2881596434738
26	1016	57.5	8.2052458035426
26	1017	58	8.2501685728568
26	1019	58.5	8.2776309025001
26	1020	59	8.266828532295
26	1021	59.5	8.2805043366265
26	1023	60	8.2083914949132
26	1047	60.5	7.3215039888642
26	1048	61	5.92509912954
26	1061	61.5	4.6726728366992
26	1062	62	3.5951729758839
26	1075	62.5	4.3558272438502
26	1076	63	5.6558272438502
26	1078	63.5	6.6099475102738
26	1079	64	7.4739794795174
26	1080	64.5	8.2563484287022
26	1082	65	8.2992246407705
26	1106	65.5	8.2758380084827
26	1107	66	8.283909496322
26	1120	66.5	8.3220709925161
26	1122	67	8.23206959841
26	1135	67.5	8.3101122440437
26	1240	68	8.2978331533975
26	1242	68.5	8.2320050437927
26	1255	69	8.2293265351785
26	1256	69.5	8.2185477926761
26	1270	70	8.2085736652852
26	1294	70.5	8.2314257641944
26	1296	71	8.2635969250712
26	1309	71.5	8.2632009324005
26	1311	72	8.2089672554952
26	1324	72.5	8.2580400896321
26	1325	73	8.2186346160543
26	1327	73.5	8.2192729741258
26	1328	74	6.7996116010247
26	1329	74.5	5.451330623934
26	1332	75	4.2983454757411
26	1357	75.5	2.0483454757411
26	1358	76	0
26	1371	76.5	0
26	1372	77	0
26	1385	77.5	0
26	1387	78	0
26	1389	78.5	0
26	1390	79	0
26	1391	79.5	0
26	1393	80	0
26	1417	80.5	0
26	1418	81	0
26	1431	81.5	0
26	1432	82	0
26	1445	82.5	0
26	1446	83	0
26	1448	83.5	0
26	1449	84	0
26	1450	84.5	0
26	1452	85	0
26	1476	85.5	0
26	1477	86	0
26	1490	86.5	0
26	1491	87	0
26	1504	87.5	0
26	1546	88	0
26	1548	88.5	0
26	1549	89	0
26	1550	89.5	0
26	1552	90	0
26	1576	90.5	0
26	1618	91	0
26	1631	91.5	0
26	1632	92	0
27	16	1.5	0.03279124979861
27	184	2	-0.022335798176936
27	186	2.5	-0.0250992690213
27	187	3	0.1063246892998
27	188	3.5	-0.077273424449377
27	189	4	-0.13046035805251
27	190	4.5	0.017966362116859
27	192	5	0.17748544547241
27	217	5.5	-0.10896568916272
27	218	6	0.031904934649358
27	231	6.5	-0.083786621568727
27	232	7	0.18671337877401
27	245	7.5	-2.7743168523168
27	246	8	-2.818905353752
27	248	8.5	-2.5062829149419
27	249	9	-1.2485160645815
27	250	9.5	2.6
27	252	10	2.3473992255703
27	276	10.5	2.0782983011473
27	277	11	1.8431309037842
27	290	11.5	0.33279701620196
27	291	12	0.08773043347988
27	304	12.5	-0.111884950893
27	305	13	0.12432419104502
27	307	13.5	0.047582785855045
27	308	14	-0.021456957403569
27	309	14.5	-0.1075167523697
27	311	15	-0.059706194489262
27	335	15.5	-0.062484018774704
27	336	16	0.22382334420923
27	349	16.5	-0.20787201723084
27	350	17	0.091424846346488
27	363	17.5	-0.091031592111101
27	364	18	-0.0032690427266076
27	366	18.5	0.022608070857821
27	405	19	0.14376335692592
27	406	19.5	-0.068488002228548
27	408	20	0.14251276053954
27	432	20.5	-1.3683578427333
27	433	21	-2.6994034708489
27	446	21.5	-2.7615371861311
27	447	22	-2.3241582360589
27	460	22.5	0.86100455777656
27	461	23	2.6
27	463	23.5	2.0272604840994
27	464	24	1.7071146617969
27	465	24.5	1.8179412124306
27	467	25	0.031154333584787
27	491	25.5	-0.012032057559118
27	492	26	0.046814190400767
27	505	26.5	-0.15297739110887
27	506	27	0.080206692689099
27	519	27.5	0.13944835262839
27	520	28	-0.10342626858968
27	522	28.5	0.086881212047302
27	523	29	-0.18432285694871
27	524	29.5	0.1837224758137
27	526	30	-0.23381225869059
27	550	30.5	0.2499347807793
27	551	31	-0.022427755459212
27	564	31.5	-0.074769952921198
27	565	32	0.088979730885477
27	578	32.5	-0.091236178134569
27	579	33	-0.14441599755082
27	581	33.5	0.054758551679551
27	582	34	-2.1495190643078
27	583	34.5	-2.7941903734609
27	585	35	-2.6268286599853
27	609	35.5	-2.2330530624725
27	610	36	2.6
27	623	36.5	2.5869037847267
27	662	37	1.7053842324531
27	675	37.5	1.8303393304395
27	676	38	1.1987351552321
27	678	38.5	0.023270460739731
27	679	39	-0.13444796900731
27	680	39.5	0.015341586619616
27	719	40	0.063993296972477
27	743	40.5	-0.14091681796126
27	744	41	0.24744867199566
27	757	41.5	-0.11801857538987
27	758	42	-0.10869949060027
27	771	42.5	0.11457073338795
27	809	43	0.11319454085082
27	811	43.5	-0.22978123285342
27	812	44	0.019077895097436
27	813	44.5	0.13498894165736
27	815	45	0.032818312100133
27	839	45.5	-0.07742089533247
27	854	46	-0.06433626809623
27	867	46.5	-0.058914713896812
27	868	47	-0.28447830838075
27	881	47.5	-2.9981655459342
27	882	48	-2.6434740491803
27	884	48.5	-2.3998171468872
27	901	49	-0.10578068455819
27	902	49.5	2.6
27	904	50	2.3925556411687
27	928	50.5	2.0349130427651
27	929	51	1.4182171412879
27	942	51.5	0.044726755092849
27	943	52	0.11428201919887
27	956	52.5	0.059568401915019
27	957	53	-0.15778834491502
27	959	53.5	-0.0087303432077199
27	961	54	0.056645469889045
27	962	54.5	-0.031420445870605
27	964	55	0.097441197540611
27	988	55.5	-0.12580347700045
27	989	56	-0.041268972540276
27	1002	56.5	0.17678589510266
27	1003	57	-0.039751735981554
27	1016	57.5	-0.16582767986227
27	1017	58	0.089845538628289
27	1019	58.5	0.054924659286623
27	1020	59	-0.021604740410112
27	1021	59.5	0.027351608662869
27	1023	60	-0.14422568342648
27	1047	60.5	-1.7737750120981
27	1048	61	-2.7928097186484
27	1061	61.5	-2.5048525856815
27	1062	62	-2.1549997216306
27	1075	62.5	1.5213085359325
27	1076	63	2.6
27	1078	63.5	1.9082405328471
27	1079	64	1.7280639384873
27	1080	64.5	1.5647378983695
27	1082	65	0.085752424136736
27	1106	65.5	-0.046773264575751
27	1107	66	0.016142975678669
27	1120	66.5	0.076322992388157
27	1122	67	-0.18000278821215
27	1135	67.5	0.15608529126737
27	1240	68	-0.024558181292377
27	1242	68.5	-0.13165621920955
27	1255	69	-0.005357017228377
27	1256	69.5	-0.021557485004887
27	1270	70	-0.019948254781777
27	1294	70.5	0.045704197818417
27	1296	71	0.0643423217535
27	1309	71.5	-0.00079198534134761
27	1311	72	-0.10846735381056
27	1324	72.5	0.098145668273791
27	1325	73	-0.078810947155578
27	1327	73.5	0.0012767161428933
27	1328	74	-2.8393227462021
27	1329	74.5	-2.6965619541815
27	1332	75	-2.3059702963858
27	1357	75.5	-4.5
27	1358	76	-4.0966909514822
27	1371	76.5	0
27	1372	77	0
27	1385	77.5	0
27	1387	78	0
27	1389	78.5	0
27	1390	79	0
27	1391	79.5	0
27	1393	80	0
27	1417	80.5	0
27	1418	81	0
27	1431	81.5	0
27	1432	82	0
27	1445	82.5	0
27	1446	83	0
27	1448	83.5	0
27	1449	84	0
27	1450	84.5	0
27	1452	85	0
27	1476	85.5	0
27	1477	86	0
27	1490	86.5	0
27	1491	87	0
27	1504	87.5	0
27	1546	88	0
27	1548	88.5	0
27	1549	89	0
27	1550	89.5	0
27	1552	90	0
27	1576	90.5	0
27	1618	91	0
27	1631	91.5	0
27	1632	92	0
28	16	1.5	1.6284007215665
28	184	2	1.5175102799829
28	186	2.5	1.5112257660327
28	187	3	1.7781326719354
28	188	3.5	1.4079337408328
28	189	4	1.2994036318462
28	190	4.5	1.5940876837902
28	192	5	1.9202114933539
28	217	5.5	1.3437505417205
28	218	6	1.6254875720102
28	231	6.5	1.3926774456517
28	232	7	1.9401642065261
28	245	7.5	0.973
28	246	8	0.973
28	248	8.5	0.973
28	249	9	0.973
28	250	9.5	4.4663293988283
28	252	10	4.8952147666974
28	276	10.5	5.0809973942157
28	277	11	5.1433516206493
28	290	11.5	2.2226642754374
28	291	12	1.7388351295543
28	304	12.5	1.3372196523104
28	305	13	1.8126523338742
28	307	13.5	1.6608801726898
28	308	14	1.5215870804867
28	309	14.5	1.3467849263713
28	311	15	1.4404667613775
28	335	15.5	1.433330419309
28	336	16	2.0130942096798
28	349	16.5	0.973
28	350	17	1.742487280456
28	363	17.5	1.3772413471083
28	364	18	1.5508683540886
28	366	18.5	1.6029030851025
28	405	19	1.8503420948855
28	406	19.5	1.4242596991419
28	408	20	1.8516075749617
28	432	20.5	0.973
28	433	21	0.973
28	446	21.5	0.973
28	447	22	0.973
28	460	22.5	2.1874331637897
28	461	23	4.8277413607608
28	463	23.5	4.6246845166386
28	464	24	4.5268749322221
28	465	24.5	5.1807509698235
28	467	25	1.6239005469584
28	491	25.5	1.5373547729713
28	492	26	1.6565088169677
28	505	26.5	1.2547628401728
28	506	27	1.720118907638
28	519	27.5	1.8450735474124
28	520	28	1.3553644706669
28	522	28.5	1.7388258435202
28	523	29	0.973
28	524	29.5	1.9329859810891
28	526	30	0.973
28	550	30.5	2.0667845294516
28	551	31	1.5194168372372
28	564	31.5	1.412656440402
28	565	32	1.7433585531503
28	578	32.5	1.3797480872086
28	579	33	1.2713158463983
28	581	33.5	1.6674305561085
28	582	34	0.973
28	583	34.5	0.973
28	585	35	0.973
28	609	35.5	0.973
28	610	36	4.2450844971094
28	623	36.5	5.1092943005898
28	662	37	4.2515773846665
28	675	37.5	4.9168342953858
28	676	38	3.9584594330067
28	678	38.5	1.6100806408712
28	679	39	1.2920907749883
28	680	39.5	1.5899890622263
28	719	40	1.6893023065884
28	743	40.5	1.2782326105632
28	744	41	2.0620073700224
28	757	41.5	1.3260178205624
28	758	42	1.3423721172828
28	771	42.5	1.7899236194698
28	809	43	1.7925348174309
28	811	43.5	0.973
28	812	44	1.596011604864
28	813	44.5	1.8325083432627
28	815	45	1.629549466048
28	839	45.5	1.4069120636957
28	854	46	1.431331640646
28	867	46.5	1.4405408821998
28	868	47	0.973
28	881	47.5	0.973
28	882	48	0.973
28	884	48.5	0.973
28	901	49	1.2067087360956
28	902	49.5	4.6956087145763
28	904	50	5.190026058444
28	928	50.5	5.1925955444447
28	929	51	4.3656476647034
28	942	51.5	1.6478598975489
28	943	52	1.7913674840101
28	956	52.5	1.6844199454478
28	957	53	1.2460193686794
28	959	53.5	1.5419642121162
28	961	54	1.6741071542787
28	962	54.5	1.4976459258053
28	964	55	1.7584133759033
28	988	55.5	1.3093659887142
28	989	56	1.4760661207633
28	1002	56.5	1.9177214199921
28	1003	57	1.4830141658973
28	1016	57.5	1.2289353255195
28	1017	58	1.7385025385319
28	1019	58.5	1.6712777375489
28	1020	59	1.51793882401
28	1021	59.5	1.6164841478609
28	1023	60	1.2717536263827
28	1047	60.5	0.973
28	1048	61	0.973
28	1061	61.5	0.973
28	1062	62	0.973
28	1075	62.5	2.92475995443
28	1076	63	4.9434917145413
28	1078	63.5	4.4953648064689
28	1079	64	4.6217518576846
28	1080	64.5	4.6737624033986
28	1082	65	1.7346753877656
28	1106	65.5	1.4682993118552
28	1107	66	1.5943584277708
28	1120	66.5	1.7177750989795
28	1122	67	0.973
28	1135	67.5	1.8764919509194
28	1240	68	1.513956249955
28	1242	68.5	1.2974509025987
28	1255	69	1.5478415181928
28	1256	69.5	1.515045653949
28	1270	70	1.5176133271829
28	1294	70.5	1.6492733744649
28	1296	71	1.6889044586032
28	1309	71.5	1.5591612157428
28	1311	72	1.342515029014
28	1324	72.5	1.755720141444
28	1325	73	1.4016496025933
28	1327	73.5	1.5603214533469
28	1328	74	0.973
28	1329	74.5	0.973
28	1332	75	0.973
28	1357	75.5	0.973
28	1358	76	0.973
28	1371	76.5	0.973
28	1372	77	0.973
28	1385	77.5	0.973
28	1387	78	0.973
28	1389	78.5	0.973
28	1390	79	0.973
28	1391	79.5	0.973
28	1393	80	0.973
28	1417	80.5	0.973
28	1418	81	0.973
28	1431	81.5	0.973
28	1432	82	0.973
28	1445	82.5	0.973
28	1446	83	0.973
28	1448	83.5	0.973
28	1449	84	0.973
28	1450	84.5	0.973
28	1452	85	0.973
28	1476	85.5	0.973
28	1477	86	0.973
28	1490	86.5	0.973
28	1491	87	0.973
28	1504	87.5	0.973
28	1546	88	0.973
28	1548	88.5	0.973
28	1549	89	0.973
28	1550	89.5	0.973
28	1552	90	0.973
28	1576	90.5	0.973
28	1618	91	0.973
28	1631	91.5	0.973
28	1632	92	0.973
29	19	1.565943340631	56
29	42	1.565958580631	72
29	195	5	104
29	254	10	104
29	313	15	104
29	410	20	104
29	469	25	104
29	528	30	104
29	587	35	104
29	721	40	104
29	817	45	104
29	906	50	104
29	966	55	104
29	1025	60	104
29	1084	65	104
29	1272	70	104
29	1334	75	104
29	1395	80	104
29	1454	85	104
29	1554	90	104
30	21	1.565943340631	74
30	44	1.565958580631	90
30	197	5	122
30	256	10	122
30	315	15	122
30	412	20	122
30	471	25	122
30	530	30	122
30	589	35	122
30	723	40	122
30	819	45	122
30	908	50	122
30	968	55	122
30	1027	60	122
30	1086	65	122
30	1274	70	122
30	1336	75	122
30	1397	80	122
30	1456	85	122
30	1556	90	122
31	21	1.565943340631	0
31	44	1.565958580631	0
31	197	5	0
31	256	10	0
31	315	15	0
31	412	20	0
31	471	25	0
31	530	30	0
31	589	35	0
31	723	40	0
31	819	45	0
31	908	50	0
31	968	55	0
31	1027	60	0
31	1086	65	0
31	1274	70	0
31	1336	75	0
31	1397	80	0
31	1456	85	0
31	1556	90	0
32	23	1.565943340631	74
32	46	1.565958580631	90
32	199	5	122
32	258	10	122
32	317	15	122
32	414	20	122
32	473	25	122
32	532	30	122
32	591	35	122
32	725	40	122
32	821	45	122
32	910	50	122
32	970	55	122
32	1029	60	122
32	1088	65	122
32	1276	70	122
32	1338	75	122
32	1399	80	122
32	1458	85	122
32	1558	90	122
33	24	1.565949900631	74
33	48	1.565966420631	90
33	200	5.0000104	122
33	259	10.0000104	122
33	318	15.0000104	122
33	415	20.0000104	122
33	474	25.0000104	122
33	533	30.0000104	122
33	592	35.0000104	122
33	726	40.0000104	122
33	822	45.0000104	122
33	911	50.0000104	122
33	971	55.0000104	122
33	1030	60.0000104	122
33	1089	65.0000104	122
33	1277	70.0000104	122
33	1339	75.0000104	122
33	1400	80.0000104	122
33	1459	85.0000104	122
33	1559	90.0000104	122
34	25	1.565950000631	74
34	49	1.565966520631	90
34	201	5.0000105	122
34	260	10.0000105	122
34	319	15.0000105	122
34	416	20.0000105	122
34	475	25.0000105	122
34	534	30.0000105	122
34	593	35.0000105	122
34	727	40.0000105	122
34	823	45.0000105	122
34	912	50.0000105	122
34	972	55.0000105	122
34	1031	60.0000105	122
34	1090	65.0000105	122
34	1278	70.0000105	122
34	1340	75.0000105	122
34	1401	80.0000105	122
34	1460	85.0000105	122
34	1560	90.0000105	122
35	25	1.565950000631	74
35	49	1.565966520631	90
35	201	5.0000105	122
35	260	10.0000105	122
35	319	15.0000105	122
35	416	20.0000105	122
35	475	25.0000105	122
35	534	30.0000105	122
35	593	35.0000105	122
35	727	40.0000105	122
35	823	45.0000105	122
35	912	50.0000105	122
35	972	55.0000105	122
35	1031	60.0000105	122
35	1090	65.0000105	122
35	1278	70.0000105	122
35	1340	75.0000105	122
35	1401	80.0000105	122
35	1460	85.0000105	122
35	1560	90.0000105	122
36	26	1.565950000631	56
36	50	1.565966520631	72
36	202	5.0000105	104
36	261	10.0000105	104
36	320	15.0000105	104
36	417	20.0000105	104
36	476	25.0000105	104
36	535	30.0000105	104
36	594	35.0000105	104
36	728	40.0000105	104
36	824	45.0000105	104
36	913	50.0000105	104
36	973	55.0000105	104
36	1032	60.0000105	104
36	1091	65.0000105	104
36	1279	70.0000105	104
36	1341	75.0000105	104
36	1402	80.0000105	104
36	1461	85.0000105	104
36	1561	90.0000105	104
37	30	1.565950000631	80
37	54	1.565966520631	72
38	32	1.565950000631	98
38	56	1.565966520631	90
39	32	1.565950000631	0
39	56	1.565966520631	0
40	34	1.565950000631	98
40	58	1.565966520631	90
41	36	1.565958480631	98
41	60	1.565974360631	90
42	37	1.565958580631	98
42	61	1.565974460631	90
43	37	1.565958580631	98
43	61	1.565974460631	90
44	38	1.565958580631	80
44	62	1.565974460631	72
45	122	1.989549797552	72
46	124	1.989549797552	90
47	124	1.989549797552	0
48	126	1.989549797552	90
49	128	1.989557637552	90
50	129	1.989557737552	90
51	129	1.989557737552	90
52	130	1.989557737552	72
53	191	5	0
53	251	10	1
53	310	15	2
53	407	20	3
53	466	25	4
53	525	30	5
53	584	35	6
53	718	40	7
53	814	45	8
53	903	50	9
53	963	55	10
53	1022	60	11
53	1081	65	12
53	1269	70	13
53	1331	75	14
53	1392	80	15
53	1451	85	16
53	1551	90	17
54	206	5.0000105	80
54	221	6.0000105	80
54	235	7.0000105	80
54	265	10.0000105	80
54	280	11.0000105	80
54	294	12.0000105	80
54	324	15.0000105	80
54	339	16.0000105	80
54	353	17.0000105	80
54	421	20.0000105	80
54	436	21.0000105	80
54	450	22.0000105	80
54	480	25.0000105	80
54	495	26.0000105	80
54	509	27.0000105	80
54	539	30.0000105	80
54	554	31.0000105	80
54	568	32.0000105	80
54	598	35.0000105	80
54	613	36.0000105	80
54	665	37.0000105	80
54	732	40.0000105	80
54	747	41.0000105	80
54	761	42.0000105	80
54	828	45.0000105	80
54	857	46.0000105	80
54	871	47.0000105	80
54	917	50.0000105	80
54	932	51.0000105	80
54	946	52.0000105	80
54	977	55.0000105	80
54	992	56.0000105	80
54	1006	57.0000105	80
54	1036	60.0000105	80
54	1051	61.0000105	80
54	1065	62.0000105	80
54	1095	65.0000105	80
54	1110	66.0000105	80
54	1125	67.0000105	80
54	1211	67.620661934487	80
54	1245	68.620661934487	80
54	1259	69.620661934487	80
54	1283	70.0000105	80
54	1299	71.0000105	80
54	1314	72.0000105	80
54	1345	75.0000105	80
54	1361	76.0000105	80
54	1375	77.0000105	80
54	1406	80.0000105	80
54	1421	81.0000105	80
54	1435	82.0000105	80
54	1465	85.0000105	80
54	1480	86.0000105	80
54	1494	87.0000105	80
54	1565	90.0000105	80
54	1621	91.0000105	80
54	1635	92.0000105	80
55	208	5.0000105	98
55	223	6.0000105	98
55	237	7.0000105	98
55	267	10.0000105	98
55	282	11.0000105	98
55	296	12.0000105	98
55	326	15.0000105	98
55	341	16.0000105	98
55	355	17.0000105	98
55	423	20.0000105	98
55	438	21.0000105	98
55	452	22.0000105	98
55	482	25.0000105	98
55	497	26.0000105	98
55	511	27.0000105	98
55	541	30.0000105	98
55	556	31.0000105	98
55	570	32.0000105	98
55	600	35.0000105	98
55	615	36.0000105	98
55	667	37.0000105	98
55	734	40.0000105	98
55	749	41.0000105	98
55	763	42.0000105	98
55	830	45.0000105	98
55	859	46.0000105	98
55	873	47.0000105	98
55	919	50.0000105	98
55	934	51.0000105	98
55	948	52.0000105	98
55	979	55.0000105	98
55	994	56.0000105	98
55	1008	57.0000105	98
55	1038	60.0000105	98
55	1053	61.0000105	98
55	1067	62.0000105	98
55	1097	65.0000105	98
55	1112	66.0000105	98
55	1127	67.0000105	98
55	1213	67.620661934487	98
55	1247	68.620661934487	98
55	1261	69.620661934487	98
55	1285	70.0000105	98
55	1301	71.0000105	98
55	1316	72.0000105	98
55	1347	75.0000105	98
55	1363	76.0000105	98
55	1377	77.0000105	98
55	1408	80.0000105	98
55	1423	81.0000105	98
55	1437	82.0000105	98
55	1467	85.0000105	98
55	1482	86.0000105	98
55	1496	87.0000105	98
55	1567	90.0000105	98
55	1623	91.0000105	98
55	1637	92.0000105	98
56	208	5.0000105	0
56	223	6.0000105	0
56	237	7.0000105	0
56	267	10.0000105	0
56	282	11.0000105	0
56	296	12.0000105	0
56	326	15.0000105	0
56	341	16.0000105	0
56	355	17.0000105	0
56	423	20.0000105	0
56	438	21.0000105	0
56	452	22.0000105	0
56	482	25.0000105	0
56	497	26.0000105	0
56	511	27.0000105	0
56	541	30.0000105	0
56	556	31.0000105	0
56	570	32.0000105	0
56	600	35.0000105	0
56	615	36.0000105	0
56	667	37.0000105	0
56	734	40.0000105	0
56	749	41.0000105	0
56	763	42.0000105	0
56	830	45.0000105	0
56	859	46.0000105	0
56	873	47.0000105	0
56	919	50.0000105	0
56	934	51.0000105	0
56	948	52.0000105	0
56	979	55.0000105	0
56	994	56.0000105	0
56	1008	57.0000105	0
56	1038	60.0000105	0
56	1053	61.0000105	0
56	1067	62.0000105	0
56	1097	65.0000105	0
56	1112	66.0000105	0
56	1127	67.0000105	0
56	1213	67.620661934487	0
56	1247	68.620661934487	0
56	1261	69.620661934487	0
56	1285	70.0000105	0
56	1301	71.0000105	0
56	1316	72.0000105	0
56	1347	75.0000105	0
56	1363	76.0000105	0
56	1377	77.0000105	0
56	1408	80.0000105	0
56	1423	81.0000105	0
56	1437	82.0000105	0
56	1467	85.0000105	0
56	1482	86.0000105	0
56	1496	87.0000105	0
56	1567	90.0000105	0
56	1623	91.0000105	0
56	1637	92.0000105	0
57	210	5.0000105	98
57	225	6.0000105	98
57	239	7.0000105	98
57	269	10.0000105	98
57	284	11.0000105	98
57	298	12.0000105	98
57	328	15.0000105	98
57	343	16.0000105	98
57	357	17.0000105	98
57	425	20.0000105	98
57	440	21.0000105	98
57	454	22.0000105	98
57	484	25.0000105	98
57	499	26.0000105	98
57	513	27.0000105	98
57	543	30.0000105	98
57	558	31.0000105	98
57	572	32.0000105	98
57	602	35.0000105	98
57	617	36.0000105	98
57	669	37.0000105	98
57	736	40.0000105	98
57	751	41.0000105	98
57	765	42.0000105	98
57	832	45.0000105	98
57	861	46.0000105	98
57	875	47.0000105	98
57	921	50.0000105	98
57	936	51.0000105	98
57	950	52.0000105	98
57	981	55.0000105	98
57	996	56.0000105	98
57	1010	57.0000105	98
57	1040	60.0000105	98
57	1055	61.0000105	98
57	1069	62.0000105	98
57	1099	65.0000105	98
57	1114	66.0000105	98
57	1129	67.0000105	98
57	1215	67.620661934487	98
57	1249	68.620661934487	98
57	1263	69.620661934487	98
57	1287	70.0000105	98
57	1303	71.0000105	98
57	1318	72.0000105	98
57	1349	75.0000105	98
57	1365	76.0000105	98
57	1379	77.0000105	98
57	1410	80.0000105	98
57	1425	81.0000105	98
57	1439	82.0000105	98
57	1469	85.0000105	98
57	1484	86.0000105	98
57	1498	87.0000105	98
57	1569	90.0000105	98
57	1625	91.0000105	98
57	1639	92.0000105	98
58	212	5.00001898	98
58	226	6.00001898	98
58	240	7.00001898	98
58	271	10.00001898	98
58	285	11.00001898	98
58	299	12.00001898	98
58	330	15.00001898	98
58	344	16.00001898	98
58	358	17.00001898	98
58	427	20.00001898	98
58	441	21.00001898	98
58	455	22.00001898	98
58	486	25.00001898	98
58	500	26.00001898	98
58	514	27.00001898	98
58	545	30.00001898	98
58	559	31.00001898	98
58	573	32.00001898	98
58	604	35.00001898	98
58	618	36.00001898	98
58	670	37.00001898	98
58	738	40.00001898	98
58	752	41.00001898	98
58	766	42.00001898	98
58	834	45.00001898	98
58	862	46.00001898	98
58	876	47.00001898	98
58	923	50.00001898	98
58	937	51.00001898	98
58	951	52.00001898	98
58	983	55.00001898	98
58	997	56.00001898	98
58	1011	57.00001898	98
58	1042	60.00001898	98
58	1056	61.00001898	98
58	1070	62.00001898	98
58	1101	65.00001898	98
58	1115	66.00001898	98
58	1130	67.00001898	98
58	1217	67.620670414487	98
58	1250	68.620670414487	98
58	1264	69.620670414487	98
58	1289	70.00001898	98
58	1304	71.00001898	98
58	1319	72.00001898	98
58	1351	75.00001898	98
58	1366	76.00001898	98
58	1380	77.00001898	98
58	1412	80.00001898	98
58	1426	81.00001898	98
58	1440	82.00001898	98
58	1471	85.00001898	98
58	1485	86.00001898	98
58	1499	87.00001898	98
58	1571	90.00001898	98
58	1626	91.00001898	98
58	1640	92.00001898	98
59	213	5.00001908	98
59	227	6.00001908	98
59	241	7.00001908	98
59	272	10.00001908	98
59	286	11.00001908	98
59	300	12.00001908	98
59	331	15.00001908	98
59	345	16.00001908	98
59	359	17.00001908	98
59	428	20.00001908	98
59	442	21.00001908	98
59	456	22.00001908	98
59	487	25.00001908	98
59	501	26.00001908	98
59	515	27.00001908	98
59	546	30.00001908	98
59	560	31.00001908	98
59	574	32.00001908	98
59	605	35.00001908	98
59	619	36.00001908	98
59	671	37.00001908	98
59	739	40.00001908	98
59	753	41.00001908	98
59	767	42.00001908	98
59	835	45.00001908	98
59	863	46.00001908	98
59	877	47.00001908	98
59	924	50.00001908	98
59	938	51.00001908	98
59	952	52.00001908	98
59	984	55.00001908	98
59	998	56.00001908	98
59	1012	57.00001908	98
59	1043	60.00001908	98
59	1057	61.00001908	98
59	1071	62.00001908	98
59	1102	65.00001908	98
59	1116	66.00001908	98
59	1131	67.00001908	98
59	1218	67.620670514487	98
59	1251	68.620670514487	98
59	1265	69.620670514487	98
59	1290	70.00001908	98
59	1305	71.00001908	98
59	1320	72.00001908	98
59	1352	75.00001908	98
59	1367	76.00001908	98
59	1381	77.00001908	98
59	1413	80.00001908	98
59	1427	81.00001908	98
59	1441	82.00001908	98
59	1472	85.00001908	98
59	1486	86.00001908	98
59	1500	87.00001908	98
59	1572	90.00001908	98
59	1627	91.00001908	98
60	213	5.00001908	98
60	227	6.00001908	98
60	241	7.00001908	98
60	272	10.00001908	98
60	286	11.00001908	98
60	300	12.00001908	98
60	331	15.00001908	98
60	345	16.00001908	98
60	359	17.00001908	98
60	428	20.00001908	98
60	442	21.00001908	98
60	456	22.00001908	98
60	487	25.00001908	98
60	501	26.00001908	98
60	515	27.00001908	98
60	546	30.00001908	98
60	560	31.00001908	98
60	574	32.00001908	98
60	605	35.00001908	98
60	619	36.00001908	98
60	671	37.00001908	98
60	739	40.00001908	98
60	753	41.00001908	98
60	767	42.00001908	98
60	835	45.00001908	98
60	863	46.00001908	98
60	877	47.00001908	98
60	924	50.00001908	98
60	938	51.00001908	98
60	952	52.00001908	98
60	984	55.00001908	98
60	998	56.00001908	98
60	1012	57.00001908	98
60	1043	60.00001908	98
60	1057	61.00001908	98
60	1071	62.00001908	98
60	1102	65.00001908	98
60	1116	66.00001908	98
60	1131	67.00001908	98
60	1218	67.620670514487	98
60	1251	68.620670514487	98
60	1265	69.620670514487	98
60	1290	70.00001908	98
60	1305	71.00001908	98
60	1320	72.00001908	98
60	1352	75.00001908	98
60	1367	76.00001908	98
60	1381	77.00001908	98
60	1413	80.00001908	98
60	1427	81.00001908	98
60	1441	82.00001908	98
60	1472	85.00001908	98
60	1486	86.00001908	98
60	1500	87.00001908	98
60	1572	90.00001908	98
60	1627	91.00001908	98
61	214	5.00001908	80
61	228	6.00001908	80
61	242	7.00001908	80
61	273	10.00001908	80
61	287	11.00001908	80
61	301	12.00001908	80
61	332	15.00001908	80
61	346	16.00001908	80
61	360	17.00001908	80
61	429	20.00001908	80
61	443	21.00001908	80
61	457	22.00001908	80
61	488	25.00001908	80
61	502	26.00001908	80
61	516	27.00001908	80
61	547	30.00001908	80
61	561	31.00001908	80
61	575	32.00001908	80
61	606	35.00001908	80
61	620	36.00001908	80
61	672	37.00001908	80
61	740	40.00001908	80
61	754	41.00001908	80
61	768	42.00001908	80
61	836	45.00001908	80
61	864	46.00001908	80
61	878	47.00001908	80
61	925	50.00001908	80
61	939	51.00001908	80
61	953	52.00001908	80
61	985	55.00001908	80
61	999	56.00001908	80
61	1013	57.00001908	80
61	1044	60.00001908	80
61	1058	61.00001908	80
61	1072	62.00001908	80
61	1103	65.00001908	80
61	1117	66.00001908	80
61	1132	67.00001908	80
61	1219	67.620670514487	80
61	1252	68.620670514487	80
61	1266	69.620670514487	80
61	1291	70.00001908	80
61	1306	71.00001908	80
61	1321	72.00001908	80
61	1353	75.00001908	80
61	1368	76.00001908	80
61	1382	77.00001908	80
61	1414	80.00001908	80
61	1428	81.00001908	80
61	1442	82.00001908	80
61	1473	85.00001908	80
61	1487	86.00001908	80
61	1501	87.00001908	80
61	1573	90.00001908	80
61	1628	91.00001908	80
62	1197	67.620653994487	72
63	1200	67.620653994487	90
64	1200	67.620653994487	0
65	1202	67.620653994487	90
66	1205	67.620661834487	90
67	1206	67.620661934487	90
68	1206	67.620661934487	90
69	1207	67.620661934487	72
vector 70 TestPmipv6.rsu[2].eth[0].encap encapPk:vector(packetBytes) ETV
attr interpolationmode none
attr source encapPk
attr title "packets encapsulated, vector(packetBytes)"
vector 71 TestPmipv6.rsu[2].eth[0].queue.dataQueue packetReceived:vector(packetBytes) ETV
attr interpolationmode none
attr title "received packets, vector(packetBytes)"
vector 72 TestPmipv6.rsu[2].eth[0].queue.dataQueue queueingTime:vector ETV
attr interpolationmode none
attr title "queueing time, vector"
vector 73 TestPmipv6.rsu[2].eth[0].mac packetReceivedFromUpper:vector(packetBytes) ETV
attr interpolationmode none
attr source packetReceivedFromUpper
attr title "packet bytes from higher layer, vector(packetBytes)"
vector 74 TestPmipv6.rsu[2].eth[0].mac txPk:vector(packetBytes) ETV
attr interpolationmode none
attr source packetSentToLower
attr title "packets transmitted, vector(packetBytes)"
vector 75 TestPmipv6.MA[0].eth[2].mac rxPkOk:vector(packetBytes) ETV
attr interpolationmode none
attr source rxPkOk
attr title "packets received OK, vector(packetBytes)"
vector 76 TestPmipv6.MA[0].eth[2].mac passedUpPk:vector(packetBytes) ETV
attr interpolationmode none
attr source packetSentToUpper
attr title "packets passed to higher layer, vector(packetBytes)"
vector 77 TestPmipv6.MA[0].eth[2].encap decapPk:vector(packetBytes) ETV
attr interpolationmode none
attr source decapPk
attr title "packets decapsulated, vector(packetBytes)"
28	1645	92.5	0.973
28	1646	93	0.973
28	1648	93.5	0.973
28	1690	94	0.973
28	1691	94.5	0.973
28	1693	95	0.973
28	1717	95.5	0.973
28	1718	96	0.973
28	1731	96.5	0.973
28	1773	97	0.973
28	1786	97.5	0.973
28	1787	98	0.973
28	1789	98.5	0.973
28	1790	99	0.973
28	1791	99.5	0.973
28	1834	100	0.973
28	1858	100.5	0.973
28	1859	101	0.973
28	1872	101.5	0.973
28	1873	102	0.973
28	1886	102.5	0.973
28	1928	103	0.973
28	1930	103.5	0.973
28	1931	104	0.973
28	1932	104.5	0.973
28	1934	105	0.973
28	1958	105.5	0.973
28	2000	106	0.973
28	2013	106.5	0.973
28	2014	107	0.973
28	2027	107.5	0.973
28	2028	108	0.973
28	2030	108.5	0.973
28	2072	109	0.973
28	2073	109.5	0.973
28	2075	110	0.973
28	2099	110.5	0.973
28	2100	111	0.973
28	2113	111.5	0.973
28	2155	112	0.973
28	2168	112.5	0.973
28	2169	113	0.973
28	2171	113.5	0.973
28	2172	114	0.973
28	2173	114.5	0.973
28	2216	115	0.973
28	2240	115.5	0.973
28	2241	116	0.973
28	2254	116.5	0.973
28	2255	117	0.973
28	2268	117.5	0.973
28	2310	118	0.973
28	2312	118.5	0.973
28	2313	119	0.973
28	2314	119.5	0.973
28	2316	120	0.973
28	2340	120.5	0.973
28	2382	121	0.973
28	2395	121.5	0.973
28	2396	122	0.973
28	2409	122.5	0.973
28	2411	123	0.973
28	2413	123.5	0.973
28	2455	124	0.973
28	2456	124.5	0.973
28	2458	125	0.973
28	2483	125.5	1.9874949563994
28	2485	126	2.8662076511949
28	2498	126.5	3.7473558227827
28	2540	127	3.7725406589653
28	2553	127.5	4.3976164351231
28	2554	128	4.501826251931
28	2556	128.5	4.7366295037797
28	2558	129	3.7616476887125
28	2559	129.5	1.6633816449706
28	2602	130	1.6124692728984
28	2626	130.5	1.4140846907172
28	2627	131	1.3121402005781
28	2640	131.5	1.7615853534418
28	2642	132	1.2963245463765
28	2655	132.5	2.0558037936803
28	2697	133	1.3729771233519
28	2699	133.5	1.7102685319946
28	2700	134	1.2934556256207
28	2701	134.5	1.6994464192162
28	2704	135	1.3275187999227
28	2728	135.5	1.8215102607181
28	2770	136	1.5199070648433
28	2783	136.5	1.3997183242855
28	2784	137	1.8794167342733
28	2797	137.5	0.973
28	2799	138	0.973
28	2801	138.5	0.973
28	2843	139	0.973
28	2844	139.5	0.973
28	2846	140	4.4283206296388
28	2870	140.5	5.0657815179592
28	2872	141	5.5091999547844
28	2885	141.5	5.7251962675826
28	2927	142	0.973
28	2940	142.5	1.5292258300783
28	2941	143	1.9588774653863
28	2943	143.5	1.4198197346827
28	2945	144	1.3757561440307
28	2946	144.5	1.8875492733493
28	2989	145	1.4415284657053
28	3013	145.5	1.6678097428087
28	3014	146	1.4730531844597
28	3027	146.5	1.6207123003269
28	3029	147	1.4357584572538
28	3042	147.5	1.7723568744044
28	3084	148	1.5315796394548
28	3086	148.5	1.2559924116534
28	3087	149	1.6293809920939
28	3088	149.5	1.3697869929031
28	3091	150	1.8040561937507
28	3115	150.5	1.6097335754706
28	3157	151	0.973
28	3170	151.5	0.973
28	3171	152	0.973
28	3184	152.5	0.973
28	3186	153	1.9470287680054
28	3188	153.5	4.736754633198
28	3230	154	4.31137917132
28	3231	154.5	4.9805610358379
28	3233	155	5.2089277015743
28	3257	155.5	1.943124267189
28	3259	156	1.223032618564
28	3272	156.5	1.8452405087047
28	3289	157	1.6679969138805
28	3302	157.5	1.4880624014406
28	3303	158	1.6371959415392
28	3305	158.5	1.4712313834269
28	3307	159	0.973
28	3308	159.5	1.5801555723435
28	3326	160	1.7934494392106
28	3350	160.5	1.3288634134134
28	3351	161	1.619239395304
28	3364	161.5	1.7448908044141
28	3366	162	1.3965350315303
28	3379	162.5	1.7237729966544
28	3380	163	1.7440198621608
28	3382	163.5	1.3020854870431
28	3383	164	1.6045647243063
28	3384	164.5	0.973
28	3387	165	0.973
28	3411	165.5	0.973
28	3412	166	0.973
28	3425	166.5	4.3325327399841
28	3426	167	4.8451718188449
28	3439	167.5	5.2134742665182
28	3441	168	5.4154056697412
28	3443	168.5	2.2578331187366
28	3444	169	1.7435818539097
28	3445	169.5	1.5076761488426
28	3447	170	1.5917318706671
28	3471	170.5	1.3741314314151
28	3473	171	1.5331284982542
28	3486	171.5	1.596541311172
28	3487	172	1.8145904666881
28	3500	172.5	1.4193717834724
28	3501	173	1.5760647664601
28	3503	173.5	1.7434946652152
28	3505	174	1.4376921069305
28	3506	174.5	1.4471986702284
28	3508	175	1.766546785943
28	3532	175.5	1.5891930369824
28	3533	176	1.318850478054
28	3546	176.5	1.6701124413956
28	3548	177	1.4168361671353
28	3561	177.5	0.973
28	3563	178	0.973
28	3661	178.5	0.973
28	3662	179	0.973
28	3675	179.5	0.973
28	3678	180	4.6025066509242
28	3714	180.5	4.7655611677788
28	3715	181	5.1645485491318
28	3729	181.5	5.1566872431006
28	3730	182	1.9923788366226
28	3743	182.5	1.3634653991621
28	3745	183	1.3693148540047
28	3747	183.5	1.8522747565884
28	3748	184	1.558445945042
28	3749	184.5	1.431076790848
28	3751	185	1.5657913449415
28	3775	185.5	1.7248926111986
28	3777	186	1.5776921008019
28	3790	186.5	1.4986548430586
28	3791	187	1.4908933435749
28	3804	187.5	1.3223049433496
28	3805	188	1.6193903881673
28	3807	188.5	1.8045155164554
28	3809	189	1.5373282253733
28	3810	189.5	1.5634754107784
28	3812	190	1.3403842163691
28	3836	190.5	1.4749823949099
28	3837	191	1.9777305556369
28	3850	191.5	1.3089308631116
28	3851	192	1.4420945228341
27	1645	92.5	0
27	1646	93	0
27	1648	93.5	0
27	1690	94	0
27	1691	94.5	0
27	1693	95	0
27	1717	95.5	0
27	1718	96	0
27	1731	96.5	0
27	1773	97	0
27	1786	97.5	0
27	1787	98	0
27	1789	98.5	0
27	1790	99	0
27	1791	99.5	0
27	1834	100	0
27	1858	100.5	0
27	1859	101	0
27	1872	101.5	0
27	1873	102	0
27	1886	102.5	0
27	1928	103	0
27	1930	103.5	0
27	1931	104	0
27	1932	104.5	0
27	1934	105	0
27	1958	105.5	0
27	2000	106	0
27	2013	106.5	0
27	2014	107	0
27	2027	107.5	0
27	2028	108	0
27	2030	108.5	0
27	2072	109	0
27	2073	109.5	0
27	2075	110	0
27	2099	110.5	0
27	2100	111	0
27	2113	111.5	0
27	2155	112	0
27	2168	112.5	0
27	2169	113	0
27	2171	113.5	0
27	2172	114	0
27	2173	114.5	0
27	2216	115	0
27	2240	115.5	0
27	2241	116	0
27	2254	116.5	0
27	2255	117	0
27	2268	117.5	0
27	2310	118	0
27	2312	118.5	0
27	2313	119	0
27	2314	119.5	0
27	2316	120	0
27	2340	120.5	0
27	2382	121	0
27	2395	121.5	0
27	2396	122	0
27	2409	122.5	0
27	2411	123	0
27	2413	123.5	0
27	2455	124	0
27	2456	124.5	0
27	2458	125	0
27	2483	125.5	2.6
27	2485	126	2.6
27	2498	126.5	2.6
27	2540	127	2.0367977776844
27	2553	127.5	2.0763942882465
27	2554	128	1.8298880056245
27	2556	128.5	1.7228943154309
27	2558	129	1.101738464435
27	2559	129.5	0.049730857983231
27	2602	130	0.023869210854173
27	2626	130.5	-0.074147346005773
27	2627	131	-0.12405659119599
27	2640	131.5	0.10046160373371
27	2642	132	-0.13176078994758
27	2655	132.5	0.24448108379729
27	2697	133	-0.094676994029431
27	2699	133.5	0.072786564473063
27	2700	134	-0.13398904553615
27	2701	134.5	0.068752891700715
27	2704	135	-0.11639004841913
27	2728	135.5	0.12956425054465
27	2770	136	-0.021047758115454
27	2783	136.5	-0.080311813396403
27	2784	137	0.15707711231429
27	2797	137.5	-0.43131629436173
27	2799	138	-2.7328827134739
27	2801	138.5	-2.6410330333581
27	2843	139	-2.5402293736513
27	2844	139.5	-1.0904336521012
27	2846	140	2.6
27	2870	140.5	2.4621376165887
27	2872	141	2.2882357015833
27	2885	141.5	2.0765513229467
27	2927	142	-0.18511742196977
27	2940	142.5	-0.014279453954661
27	2941	143	0.19703535252251
27	2943	143.5	-0.071129378322514
27	2945	144	-0.092179408776573
27	2946	144.5	0.16148237507325
27	2989	145	-0.06036556229461
27	3013	145.5	0.051961210658774
27	3014	146	-0.044674930977635
27	3027	146.5	0.028735044267957
27	3029	147	-0.0629057177715
27	3042	147.5	0.10360399692319
27	3084	148	-0.016211494160817
27	3086	148.5	-0.15261768336408
27	3087	149	0.034832101105714
27	3088	149.5	-0.09462311253883
27	3091	150	0.12198322741315
27	3115	150.5	0.024012456387283
27	3157	151	-1.4042829499615
27	3170	151.5	-2.8521599856043
27	3171	152	-2.5468012065383
27	3184	152.5	-2.2993138582682
27	3186	153	0.65041788236034
27	3188	153.5	2.6
27	3230	154	1.8932018020423
27	3231	154.5	1.9822414122615
27	3233	155	1.8447529709085
27	3257	155.5	0.18947078675963
27	3259	156	-0.16905515859369
27	3272	156.5	0.1412868696684
27	3289	157	0.051586644481866
27	3302	157.5	-0.037604180588385
27	3303	158	0.036251152986658
27	3305	158.5	-0.045881790732963
27	3307	159	-0.17986741199158
27	3308	159.5	0.011538496254946
27	3326	160	0.11650898948777
27	3350	160.5	-0.11544234326109
27	3351	161	0.030689771356993
27	3364	161.5	0.091984466859142
27	3366	162	-0.081741043129007
27	3379	162.5	0.081401460748168
27	3380	163	0.089558904273435
27	3382	163.5	-0.12971402597148
27	3383	164	0.021949193696493
27	3384	164.5	-2.1512824547096
27	3387	165	-2.7714470165444
27	3411	165.5	-2.6071432364623
27	3412	166	-2.078758659714
27	3425	166.5	2.6
27	3426	167	2.3888959737075
27	3439	167.5	2.1950796869909
27	3441	168	1.9943212729553
27	3443	168.5	0.3528829654802
27	3444	169	0.091430230112746
27	3445	169.5	-0.02650305784773
27	3447	170	0.015454261489211
27	3471	170.5	-0.092732682335189
27	3473	171	-0.012273274017499
27	3486	171.5	0.019409995172172
27	3487	172	0.12632315945346
27	3500	172.5	-0.070687704756853
27	3501	173	0.0079711319180191
27	3503	173.5	0.090112660909071
27	3505	174	-0.061949296221137
27	3506	174.5	-0.056421383777632
27	3508	175	0.10201229731086
27	3532	175.5	0.013035011352041
27	3533	176	-0.12098743345123
27	3546	176.5	0.054826042260977
27	3548	177	-0.071426048451105
27	3561	177.5	-0.80156829735195
27	3563	178	-2.8199277483274
27	3661	178.5	-2.4931093867629
27	3662	179	-2.4380364861971
27	3675	179.5	-0.19402179277614
27	3678	180	2.6
27	3714	180.5	2.2077093340084
27	3715	181	2.0833752556238
27	3729	181.5	1.8188313681631
27	3730	182	0.21346764599439
27	3743	182.5	-0.099179174024613
27	3745	183	-0.095189591231755
27	3747	183.5	0.14484287903178
27	3748	184	-0.0021295673726129
27	3749	184.5	-0.06502424247563
27	3751	185	0.0026055841427315
27	3775	185.5	0.080759282493965
27	3777	186	0.0070621662074686
27	3790	186.5	-0.03195039346814
27	3791	187	-0.035316510582344
27	3804	187.5	-0.11874361134134
27	3805	188	0.030787945380432
27	3807	188.5	0.12120735898614
27	3809	189	-0.012359165535308
27	3810	189.5	0.00072869510855611
27	3812	190	-0.10991989443079
27	3836	190.5	-0.041441208687608
27	3837	191	0.20664627576247
27	3850	191.5	-0.12614404702559
27	3851	192	-0.058365634209476
26	1645	92.5	0
26	1646	93	0
26	1648	93.5	0
26	1690	94	0
26	1691	94.5	0
26	1693	95	0
26	1717	95.5	0
26	1718	96	0
26	1731	96.5	0
26	1773	97	0
26	1786	97.5	0
26	1787	98	0
26	1789	98.5	0
26	1790	99	0
26	1791	99.5	0
26	1834	100	0
26	1858	100.5	0
26	1859	101	0
26	1872	101.5	0
26	1873	102	0
26	1886	102.5	0
26	1928	103	0
26	1930	103.5	0
26	1931	104	0
26	1932	104.5	0
26	1934	105	0
26	1958	105.5	0
26	2000	106	0
26	2013	106.5	0
26	2014	107	0
26	2027	107.5	0
26	2028	108	0
26	2030	108.5	0
26	2072	109	0
26	2073	109.5	0
26	2075	110	0
26	2099	110.5	0
26	2100	111	0
26	2113	111.5	0
26	2155	112	0
26	2168	112.5	0
26	2169	113	0
26	2171	113.5	0
26	2172	114	0
26	2173	114.5	0
26	2216	115	0
26	2240	115.5	0
26	2241	116	0
26	2254	116.5	0
26	2255	117	0
26	2268	117.5	0
26	2310	118	0
26	2312	118.5	0
26	2313	119	0
26	2314	119.5	0
26	2316	120	0
26	2340	120.5	0
26	2382	121	0
26	2395	121.5	0
26	2396	122	0
26	2409	122.5	0
26	2411	123	0
26	2413	123.5	0
26	2455	124	0
26	2456	124.5	0
26	2458	125	0
26	2483	125.5	1.3
26	2485	126	2.6
26	2498	126.5	3.9
26	2540	127	4.9183988888422
26	2553	127.5	5.9565960329655
26	2554	128	6.8715400357777
26	2556	128.5	7.7329871934932
26	2558	129	8.2838564257107
26	2559	129.5	8.3087218547023
26	2602	130	8.3206564601294
26	2626	130.5	8.2835827871265
26	2627	131	8.2215544915285
26	2640	131.5	8.2717852933954
26	2642	132	8.2059048984216
26	2655	132.5	8.3281454403202
26	2697	133	8.2808069433055
26	2699	133.5	8.317200225542
26	2700	134	8.2502057027739
26	2701	134.5	8.2845821486243
26	2704	135	8.2263871244147
26	2728	135.5	8.2911692496871
26	2770	136	8.2806453706293
26	2783	136.5	8.2404894639311
26	2784	137	8.3190280200883
26	2797	137.5	8.1033698729074
26	2799	138	6.7369285161705
26	2801	138.5	5.4164119994914
26	2843	139	4.1462973126658
26	2844	139.5	3.6010804866152
26	2846	140	4.9010804866152
26	2870	140.5	6.1321492949096
26	2872	141	7.2762671457012
26	2885	141.5	8.3145428071746
26	2927	142	8.2219840961897
26	2940	142.5	8.2148443692124
26	2941	143	8.3133620454736
26	2943	143.5	8.2777973563123
26	2945	144	8.2317076519241
26	2946	144.5	8.3124488394607
26	2989	145	8.2822660583134
26	3013	145.5	8.3082466636428
26	3014	146	8.285909198154
26	3027	146.5	8.3002767202879
26	3029	147	8.2688238614022
26	3042	147.5	8.3206258598638
26	3084	148	8.3125201127834
26	3086	148.5	8.2362112711013
26	3087	149	8.2536273216542
26	3088	149.5	8.2063157653848
26	3091	150	8.2673073790913
26	3115	150.5	8.279313607285
26	3157	151	7.5771721323043
26	3170	151.5	6.1510921395021
26	3171	152	4.8776915362329
26	3184	152.5	3.7280346070988
26	3186	153	4.053243548279
26	3188	153.5	5.353243548279
26	3230	154	6.2998444493002
26	3231	154.5	7.2909651554309
26	3233	155	8.2133416408852
26	3257	155.5	8.308077034265
26	3259	156	8.2235494549681
26	3272	156.5	8.2941928898023
26	3289	157	8.3199862120433
26	3302	157.5	8.3011841217491
26	3303	158	8.3193096982424
26	3305	158.5	8.2963688028759
26	3307	159	8.2064350968801
26	3308	159.5	8.2122043450076
26	3326	160	8.2704588397515
26	3350	160.5	8.212737668121
26	3351	161	8.2280825537995
26	3364	161.5	8.274074787229
26	3366	162	8.2332042656645
26	3379	162.5	8.2739049960386
26	3380	163	8.3186844481753
26	3382	163.5	8.2538274351896
26	3383	164	8.2648020320378
26	3384	164.5	7.189160804683
26	3387	165	5.8034372964108
26	3411	165.5	4.4998656781797
26	3412	166	3.4604863483227
26	3425	166.5	4.7604863483227
26	3426	167	5.9549343351764
26	3439	167.5	7.0524741786719
26	3441	168	8.0496348151496
26	3443	168.5	8.2260762978897
26	3444	169	8.271791412946
26	3445	169.5	8.2585398840222
26	3447	170	8.2662670147668
26	3471	170.5	8.2199006735992
26	3473	171	8.2137640365904
26	3486	171.5	8.2234690341765
26	3487	172	8.2866306139032
26	3500	172.5	8.2512867615248
26	3501	173	8.2552723274838
26	3503	173.5	8.3003286579384
26	3505	174	8.2693540098278
26	3506	174.5	8.241143317939
26	3508	175	8.2921494665944
26	3532	175.5	8.2986669722704
26	3533	176	8.2381732555448
26	3546	176.5	8.2655862766753
26	3548	177	8.2298732524497
26	3561	177.5	7.8290891037738
26	3563	178	6.4191252296101
26	3661	178.5	5.1725705362286
26	3662	179	3.9535522931301
26	3675	179.5	3.856541396742
26	3678	180	5.156541396742
26	3714	180.5	6.2603960637462
26	3715	181	7.3020836915581
26	3729	181.5	8.2114993756397
26	3730	182	8.3182331986369
26	3743	182.5	8.2686436116246
26	3745	183	8.2210488160087
26	3747	183.5	8.2934702555246
26	3748	184	8.2924054718383
26	3749	184.5	8.2598933506005
26	3751	185	8.2611961426718
26	3775	185.5	8.3015757839188
26	3777	186	8.3051068670225
26	3790	186.5	8.2891316702885
26	3791	187	8.2714734149973
26	3804	187.5	8.2121016093266
26	3805	188	8.2274955820168
26	3807	188.5	8.2880992615099
26	3809	189	8.2819196787423
26	3810	189.5	8.2822840262965
26	3812	190	8.2273240790811
26	3836	190.5	8.2066034747373
26	3837	191	8.3099266126186
26	3850	191.5	8.2468545891058
26	3851	192	8.217671772001
25	1645	92.5	233.25
25	1646	93	233.25
25	1648	93.5	233.25
25	1690	94	233.25
25	1691	94.5	233.25
25	1693	95	233.25
25	1717	95.5	233.25
25	1718	96	233.25
25	1731	96.5	233.25
25	1773	97	233.25
25	1786	97.5	233.25
25	1787	98	233.25
25	1789	98.5	233.25
25	1790	99	233.25
25	1791	99.5	233.25
25	1834	100	233.25
25	1858	100.5	233.25
25	1859	101	233.25
25	1872	101.5	233.25
25	1873	102	233.25
25	1886	102.5	233.25
25	1928	103	233.25
25	1930	103.5	233.25
25	1931	104	233.25
25	1932	104.5	233.25
25	1934	105	233.25
25	1958	105.5	233.25
25	2000	106	233.25
25	2013	106.5	233.25
25	2014	107	233.25
25	2027	107.5	233.25
25	2028	108	233.25
25	2030	108.5	233.25
25	2072	109	233.25
25	2073	109.5	233.25
25	2075	110	233.25
25	2099	110.5	233.25
25	2100	111	233.25
25	2113	111.5	233.25
25	2155	112	233.25
25	2168	112.5	233.25
25	2169	113	233.25
25	2171	113.5	233.25
25	2172	114	233.25
25	2173	114.5	233.25
25	2216	115	233.25
25	2240	115.5	233.25
25	2241	116	233.25
25	2254	116.5	233.25
25	2255	117	233.25
25	2268	117.5	233.25
25	2310	118	233.25
25	2312	118.5	233.25
25	2313	119	233.25
25	2314	119.5	233.25
25	2316	120	233.25
25	2340	120.5	233.25
25	2382	121	233.25
25	2395	121.5	233.25
25	2396	122	233.25
25	2409	122.5	233.25
25	2411	123	233.25
25	2413	123.5	233.25
25	2455	124	233.25
25	2456	124.5	233.25
25	2458	125	233.25
25	2483	125.5	233.25
25	2485	126	233.25
25	2498	126.5	233.25
25	2540	127	233.25
25	2553	127.5	233.25
25	2554	128	233.25
25	2556	128.5	233.25
25	2558	129	233.25
25	2559	129.5	233.25
25	2602	130	233.25
25	2626	130.5	233.25
25	2627	131	233.25
25	2640	131.5	233.25
25	2642	132	233.25
25	2655	132.5	233.25
25	2697	133	233.25
25	2699	133.5	233.25
25	2700	134	233.25
25	2701	134.5	233.25
25	2704	135	233.25
25	2728	135.5	233.25
25	2770	136	233.25
25	2783	136.5	233.25
25	2784	137	233.25
25	2797	137.5	233.25
25	2799	138	233.25
25	2801	138.5	233.25
25	2843	139	233.25
25	2844	139.5	233.25
25	2846	140	233.25
25	2870	140.5	233.25
25	2872	141	233.25
25	2885	141.5	233.25
25	2927	142	233.25
25	2940	142.5	233.25
25	2941	143	233.25
25	2943	143.5	233.25
25	2945	144	233.25
25	2946	144.5	233.25
25	2989	145	233.25
25	3013	145.5	233.25
25	3014	146	233.25
25	3027	146.5	233.25
25	3029	147	233.25
25	3042	147.5	233.25
25	3084	148	233.25
25	3086	148.5	233.25
25	3087	149	233.25
25	3088	149.5	233.25
25	3091	150	233.25
25	3115	150.5	233.25
25	3157	151	233.25
25	3170	151.5	233.25
25	3171	152	233.25
25	3184	152.5	233.25
25	3186	153	233.25
25	3188	153.5	233.25
25	3230	154	233.25
25	3231	154.5	233.25
25	3233	155	233.25
25	3257	155.5	233.25
25	3259	156	233.25
25	3272	156.5	233.25
25	3289	157	233.25
25	3302	157.5	233.25
25	3303	158	233.25
25	3305	158.5	233.25
25	3307	159	233.25
25	3308	159.5	233.25
25	3326	160	233.25
25	3350	160.5	233.25
25	3351	161	233.25
25	3364	161.5	233.25
25	3366	162	233.25
25	3379	162.5	233.25
25	3380	163	233.25
25	3382	163.5	233.25
25	3383	164	233.25
25	3384	164.5	233.25
25	3387	165	233.25
25	3411	165.5	233.25
25	3412	166	233.25
25	3425	166.5	233.25
25	3426	167	233.25
25	3439	167.5	233.25
25	3441	168	233.25
25	3443	168.5	233.25
25	3444	169	233.25
25	3445	169.5	233.25
25	3447	170	233.25
25	3471	170.5	233.25
25	3473	171	233.25
25	3486	171.5	233.25
25	3487	172	233.25
25	3500	172.5	233.25
25	3501	173	233.25
25	3503	173.5	233.25
25	3505	174	233.25
25	3506	174.5	233.25
25	3508	175	233.25
25	3532	175.5	233.25
25	3533	176	233.25
25	3546	176.5	233.25
25	3548	177	233.25
25	3561	177.5	233.25
25	3563	178	233.25
25	3661	178.5	233.25
25	3662	179	233.25
25	3675	179.5	233.25
25	3678	180	233.25
25	3714	180.5	233.25
25	3715	181	233.25
25	3729	181.5	233.25
25	3730	182	233.25
25	3743	182.5	233.25
25	3745	183	233.25
25	3747	183.5	233.25
25	3748	184	233.25
25	3749	184.5	233.25
25	3751	185	233.25
25	3775	185.5	233.25
25	3777	186	233.25
25	3790	186.5	233.25
25	3791	187	233.25
25	3804	187.5	233.25
25	3805	188	233.25
25	3807	188.5	233.25
25	3809	189	233.25
25	3810	189.5	233.25
25	3812	190	233.25
25	3836	190.5	233.25
25	3837	191	233.25
25	3850	191.5	233.25
25	3851	192	233.25
24	1645	92.5	609.62120406422
24	1646	93	609.62120406422
24	1648	93.5	609.62120406422
24	1690	94	609.62120406422
24	1691	94.5	609.62120406422
24	1693	95	609.62120406422
24	1717	95.5	609.62120406422
24	1718	96	609.62120406422
24	1731	96.5	609.62120406422
24	1773	97	609.62120406422
24	1786	97.5	609.62120406422
24	1787	98	609.62120406422
24	1789	98.5	609.62120406422
24	1790	99	609.62120406422
24	1791	99.5	609.62120406422
24	1834	100	609.62120406422
24	1858	100.5	609.62120406422
24	1859	101	609.62120406422
24	1872	101.5	609.62120406422
24	1873	102	609.62120406422
24	1886	102.5	609.62120406422
24	1928	103	609.62120406422
24	1930	103.5	609.62120406422
24	1931	104	609.62120406422
24	1932	104.5	609.62120406422
24	1934	105	609.62120406422
24	1958	105.5	609.62120406422
24	2000	106	609.62120406422
24	2013	106.5	609.62120406422
24	2014	107	609.62120406422
24	2027	107.5	609.62120406422
24	2028	108	609.62120406422
24	2030	108.5	609.62120406422
24	2072	109	609.62120406422
24	2073	109.5	609.62120406422
24	2075	110	609.62120406422
24	2099	110.5	609.62120406422
24	2100	111	609.62120406422
24	2113	111.5	609.62120406422
24	2155	112	609.62120406422
24	2168	112.5	609.62120406422
24	2169	113	609.62120406422
24	2171	113.5	609.62120406422
24	2172	114	609.62120406422
24	2173	114.5	609.62120406422
24	2216	115	609.62120406422
24	2240	115.5	609.62120406422
24	2241	116	609.62120406422
24	2254	116.5	609.62120406422
24	2255	117	609.62120406422
24	2268	117.5	609.62120406422
24	2310	118	609.62120406422
24	2312	118.5	609.62120406422
24	2313	119	609.62120406422
24	2314	119.5	609.62120406422
24	2316	120	609.62120406422
24	2340	120.5	609.62120406422
24	2382	121	609.62120406422
24	2395	121.5	609.62120406422
24	2396	122	609.62120406422
24	2409	122.5	609.62120406422
24	2411	123	609.62120406422
24	2413	123.5	609.62120406422
24	2455	124	609.62120406422
24	2456	124.5	609.62120406422
24	2458	125	609.62120406422
24	2483	125.5	609.62120406422
24	2485	126	610.01120406422
24	2498	126.5	611.05120406422
24	2540	127	612.74120406422
24	2553	127.5	615.02814797669
24	2554	128	617.79165650254
24	2556	128.5	621.06562579298
24	2558	129	624.75201098617
24	2559	129.5	628.81273281181
24	2602	130	632.95340446832
24	2626	130.5	637.08724541417
24	2627	131	641.22567612295
24	2640	131.5	645.3617545499
24	2642	132	649.50019402304
24	2655	132.5	653.63381103161
24	2697	133	657.76942093745
24	2699	133.5	661.9135247013
24	2700	134	666.06081545004
24	2701	134.5	670.18906222136
24	2704	135	674.33479463946
24	2728	135.5	678.46512339208
24	2770	136	682.58900817829
24	2783	136.5	686.72703254854
24	2784	137	690.86121764905
24	2797	137.5	695.00397070681
24	2799	138	699.12259464952
24	2801	138.5	702.74679966078
24	2843	139	705.68418943543
24	2844	139.5	707.98119142498
24	2846	140	709.78126398123
24	2870	140.5	711.97180422453
24	2872	141	714.80255411905
24	2885	141.5	718.21211144556
24	2927	142	722.20562608128
24	2940	142.5	726.34985825493
24	2941	143	730.48975949653
24	2943	143.5	734.61525847811
24	2945	144	738.75454813862
24	2946	144.5	742.8947917939
24	2989	145	747.02700750938
24	3013	145.5	751.17073799236
24	3014	146	755.29448056835
24	3027	146.5	759.41421423562
24	3029	147	763.55187777502
24	3042	147.5	767.69506577766
24	3084	148	771.83869090454
24	3086	148.5	775.97870386654
24	3087	149	780.11177637358
24	3088	149.5	784.25264338394
24	3091	150	788.38293849929
24	3115	150.5	792.50889046636
24	3157	151	796.63778534162
24	3170	151.5	800.63575369209
24	3171	152	803.98423945371
24	3184	152.5	806.67364536904
24	3186	153	808.7460568999
24	3188	153.5	810.56221839627
24	3230	154	812.97884017041
24	3231	154.5	815.94923766931
24	3233	155	819.38708387937
24	3257	155.5	823.32937712481
24	3259	156	827.46813542388
24	3272	156.5	831.59763923737
24	3289	157	835.73465437183
24	3302	157.5	839.86790542417
24	3303	158	844.00250859415
24	3305	158.5	848.15549399897
24	3307	159	852.29083213093
24	3308	159.5	856.41331580032
24	3326	160	860.54266195244
24	3350	160.5	864.68494638225
24	3351	161	868.83028519814
24	3364	161.5	872.95802132577
24	3366	162	877.08239209564
24	3379	162.5	881.20648371845
24	3380	163	885.34092948818
24	3382	163.5	889.48686219732
24	3383	164	893.63517980354
24	3384	164.5	897.76583254654
24	3387	165	901.63929961698
24	3411	165.5	904.81222124631
24	3412	166	907.31767562574
24	3425	166.5	909.23705052385
24	3426	167	911.35729369802
24	3439	167.5	914.11698167086
24	3441	168	917.43078393296
24	3443	168.5	921.27657110392
24	3444	169	925.41609193649
24	3445	169.5	929.54878312489
24	3447	170	933.66764587478
24	3471	170.5	937.80278847036
24	3473	171	941.91966458775
24	3486	171.5	946.05433982106
24	3487	172	950.18651911006
24	3500	172.5	954.33210071103
24	3501	173	958.45517336619
24	3503	173.5	962.59552850809
24	3505	174	966.73062538116
24	3506	174.5	970.86527936846
24	3508	175	974.99405736856
24	3532	175.5	979.12726552546
24	3533	176	983.26600672062
24	3546	176.5	987.39001024107
24	3548	177	991.53359690944
24	3561	177.5	995.66422945797
24	3563	178	999.74009524269
[...]
11	3624	178.075002467845	0
19	1708	95.0000105	1
19	1708	95.0000105	0
19	1723	96.0000105	1
19	1723	96.0000105	0
19	1778	97.0000105	1
19	1778	97.0000105	0
19	1849	100.0000105	1
19	1849	100.0000105	0
19	1864	101.0000105	1
19	1864	101.0000105	0
19	1878	102.0000105	1
19	1878	102.0000105	0
19	1949	105.0000105	1
19	1949	105.0000105	0
19	2005	106.0000105	1
19	2005	106.0000105	0
19	2019	107.0000105	1
19	2019	107.0000105	0
19	2090	110.0000105	1
19	2090	110.0000105	0
19	2105	111.0000105	1
19	2105	111.0000105	0
19	2160	112.0000105	1
19	2160	112.0000105	0
19	2231	115.0000105	1
19	2231	115.0000105	0
19	2246	116.0000105	1
19	2246	116.0000105	0
19	2260	117.0000105	1
19	2260	117.0000105	0
19	2331	120.0000105	1
19	2331	120.0000105	0
19	2387	121.0000105	1
19	2387	121.0000105	0
19	2401	122.0000105	1
19	2401	122.0000105	0
19	2473	125.0000105	1
19	2473	125.0000105	0
19	2490	126.0000105	1
19	2490	126.0000105	0
19	2545	127.0000105	1
19	2545	127.0000105	0
19	2617	130.0000105	1
19	2617	130.0000105	0
19	2632	131.0000105	1
19	2632	131.0000105	0
19	2647	132.0000105	1
19	2647	132.0000105	0
19	2719	135.0000105	1
19	2719	135.0000105	0
19	2775	136.0000105	1
19	2775	136.0000105	0
19	2789	137.0000105	1
19	2789	137.0000105	0
19	2861	140.0000105	1
19	2861	140.0000105	0
19	2877	141.0000105	1
19	2877	141.0000105	0
19	2932	142.0000105	1
19	2932	142.0000105	0
19	3004	145.0000105	1
19	3004	145.0000105	0
19	3019	146.0000105	1
19	3019	146.0000105	0
19	3034	147.0000105	1
19	3034	147.0000105	0
19	3106	150.0000105	1
19	3106	150.0000105	0
19	3162	151.0000105	1
19	3162	151.0000105	0
19	3176	152.0000105	1
19	3176	152.0000105	0
19	3248	155.0000105	1
19	3248	155.0000105	0
19	3264	156.0000105	1
19	3264	156.0000105	0
19	3294	157.0000105	1
19	3294	157.0000105	0
19	3341	160.0000105	1
19	3341	160.0000105	0
19	3356	161.0000105	1
19	3356	161.0000105	0
19	3371	162.0000105	1
19	3371	162.0000105	0
19	3402	165.0000105	1
19	3402	165.0000105	0
19	3417	166.0000105	1
19	3417	166.0000105	0
19	3431	167.0000105	1
19	3431	167.0000105	0
19	3462	170.0000105	1
19	3462	170.0000105	0
19	3478	171.0000105	1
19	3478	171.0000105	0
19	3492	172.0000105	1
19	3492	172.0000105	0
19	3523	175.0000105	1
19	3523	175.0000105	0
19	3538	176.0000105	1
19	3538	176.0000105	0
19	3553	177.0000105	1
19	3553	177.0000105	0
19	3636	178.075010407845	1
19	3636	178.075010407845	0
19	3667	179.075010407845	1
19	3667	179.075010407845	0
19	3693	180.0000105	1
19	3693	180.0000105	0
19	3706	180.075010407845	1
19	3706	180.075010407845	0
19	3720	181.0000105	1
19	3720	181.0000105	0
19	3735	182.0000105	1
19	3735	182.0000105	0
19	3766	185.0000105	1
19	3766	185.0000105	0
19	3782	186.0000105	1
19	3782	186.0000105	0
19	3796	187.0000105	1
19	3796	187.0000105	0
19	3827	190.0000105	1
19	3827	190.0000105	0
19	3842	191.0000105	1
19	3842	191.0000105	0
19	3856	192.0000105	1
19	3856	192.0000105	0
19	3881	195.0000105	1
19	3881	195.0000105	0
19	3894	196.0000105	1
19	3894	196.0000105	0
19	3906	197.0000105	1
19	3906	197.0000105	0
23	1697	95	1
23	1697	95	0
23	1838	100	1
23	1838	100	0
23	1938	105	1
23	1938	105	0
23	2079	110	1
23	2079	110	0
23	2220	115	1
23	2220	115	0
23	2320	120	1
23	2320	120	0
23	2462	125	1
23	2462	125	0
23	2606	130	1
23	2606	130	0
23	2708	135	1
23	2708	135	0
23	2850	140	1
23	2850	140	0
23	2993	145	1
23	2993	145	0
23	3095	150	1
23	3095	150	0
23	3237	155	1
23	3237	155	0
23	3330	160	1
23	3330	160	0
23	3391	165	1
23	3391	165	0
23	3451	170	1
23	3451	170	0
23	3512	175	1
23	3512	175	0
23	3682	180	1
23	3682	180	0
23	3755	185	1
23	3755	185	0
23	3816	190	1
23	3816	190	0
23	3870	195	1
23	3870	195	0
23	3919	200	1
23	3919	200	0
29	1695	95	104
29	1836	100	104
29	1936	105	104
29	2077	110	104
29	2218	115	104
29	2318	120	104
29	2460	125	104
29	2604	130	104
29	2706	135	104
29	2848	140	104
29	2991	145	104
29	3093	150	104
29	3235	155	104
29	3328	160	104
29	3389	165	104
29	3449	170	104
29	3510	175	104
29	3680	180	104
29	3753	185	104
29	3814	190	104
29	3868	195	104
29	3917	200	104
30	1697	95	122
30	1838	100	122
30	1938	105	122
30	2079	110	122
30	2220	115	122
30	2320	120	122
30	2462	125	122
30	2606	130	122
30	2708	135	122
30	2850	140	122
30	2993	145	122
30	3095	150	122
30	3237	155	122
30	3330	160	122
30	3391	165	122
30	3451	170	122
30	3512	175	122
30	3682	180	122
30	3755	185	122
30	3816	190	122
30	3870	195	122
30	3919	200	122
31	1697	95	0
31	1838	100	0
31	1938	105	0
31	2079	110	0
31	2220	115	0
31	2320	120	0
31	2462	125	0
31	2606	130	0
31	2708	135	0
31	2850	140	0
31	2993	145	0
31	3095	150	0
31	3237	155	0
31	3330	160	0
31	3391	165	0
31	3451	170	0
31	3512	175	0
31	3682	180	0
31	3755	185	0
31	3816	190	0
31	3870	195	0
31	3919	200	0
32	1699	95	122
32	1840	100	122
32	1940	105	122
32	2081	110	122
32	2222	115	122
32	2322	120	122
32	2464	125	122
32	2608	130	122
32	2710	135	122
32	2852	140	122
32	2995	145	122
32	3097	150	122
32	3239	155	122
32	3332	160	122
32	3393	165	122
32	3453	170	122
32	3514	175	122
32	3684	180	122
32	3757	185	122
32	3818	190	122
32	3872	195	122
32	3921	200	122
33	1700	95.0000104	122
33	1841	100.0000104	122
33	1941	105.0000104	122
33	2082	110.0000104	122
33	2223	115.0000104	122
33	2323	120.0000104	122
33	2465	125.0000104	122
33	2609	130.0000104	122
33	2711	135.0000104	122
33	2853	140.0000104	122
33	2996	145.0000104	122
33	3098	150.0000104	122
33	3240	155.0000104	122
33	3333	160.0000104	122
33	3394	165.0000104	122
33	3454	170.0000104	122
33	3515	175.0000104	122
33	3685	180.0000104	122
33	3758	185.0000104	122
33	3819	190.0000104	122
33	3873	195.0000104	122
34	1701	95.0000105	122
34	1842	100.0000105	122
34	1942	105.0000105	122
34	2083	110.0000105	122
34	2224	115.0000105	122
34	2324	120.0000105	122
34	2466	125.0000105	122
34	2610	130.0000105	122
34	2712	135.0000105	122
34	2854	140.0000105	122
34	2997	145.0000105	122
34	3099	150.0000105	122
34	3241	155.0000105	122
34	3334	160.0000105	122
34	3395	165.0000105	122
34	3455	170.0000105	122
34	3516	175.0000105	122
34	3686	180.0000105	122
34	3759	185.0000105	122
34	3820	190.0000105	122
34	3874	195.0000105	122
35	1701	95.0000105	122
35	1842	100.0000105	122
35	1942	105.0000105	122
35	2083	110.0000105	122
35	2224	115.0000105	122
35	2324	120.0000105	122
35	2466	125.0000105	122
35	2610	130.0000105	122
35	2712	135.0000105	122
35	2854	140.0000105	122
35	2997	145.0000105	122
35	3099	150.0000105	122
35	3241	155.0000105	122
35	3334	160.0000105	122
35	3395	165.0000105	122
35	3455	170.0000105	122
35	3516	175.0000105	122
35	3686	180.0000105	122
35	3759	185.0000105	122
35	3820	190.0000105	122
35	3874	195.0000105	122
36	1702	95.0000105	104
36	1843	100.0000105	104
36	1943	105.0000105	104
36	2084	110.0000105	104
36	2225	115.0000105	104
36	2325	120.0000105	104
36	2467	125.0000105	104
36	2611	130.0000105	104
36	2713	135.0000105	104
36	2855	140.0000105	104
36	2998	145.0000105	104
36	3100	150.0000105	104
36	3242	155.0000105	104
36	3335	160.0000105	104
36	3396	165.0000105	104
36	3456	170.0000105	104
36	3517	175.0000105	104
36	3687	180.0000105	104
36	3760	185.0000105	104
36	3821	190.0000105	104
36	3875	195.0000105	104
53	1692	95	18
53	1833	100	19
53	1933	105	20
53	2074	110	21
53	2215	115	22
53	2315	120	23
53	2457	125	24
53	2601	130	25
53	2703	135	26
53	2845	140	27
53	2988	145	28
53	3090	150	29
53	3232	155	30
53	3325	160	31
53	3386	165	32
53	3446	170	33
53	3507	175	34
53	3677	180	35
53	3750	185	36
53	3811	190	37
53	3866	195	38
53	3915	200	39
54	1706	95.0000105	80
54	1721	96.0000105	80
54	1776	97.0000105	80
54	1847	100.0000105	80
54	1862	101.0000105	80
54	1876	102.0000105	80
54	1947	105.0000105	80
54	2003	106.0000105	80
54	2017	107.0000105	80
54	2088	110.0000105	80
54	2103	111.0000105	80
54	2158	112.0000105	80
54	2229	115.0000105	80
54	2244	116.0000105	80
54	2258	117.0000105	80
54	2329	120.0000105	80
54	2385	121.0000105	80
54	2399	122.0000105	80
54	2471	125.0000105	80
54	2488	126.0000105	80
54	2543	127.0000105	80
54	2615	130.0000105	80
54	2630	131.0000105	80
54	2645	132.0000105	80
54	2717	135.0000105	80
54	2773	136.0000105	80
54	2787	137.0000105	80
54	2859	140.0000105	80
54	2875	141.0000105	80
54	2930	142.0000105	80
54	3002	145.0000105	80
54	3017	146.0000105	80
54	3032	147.0000105	80
54	3104	150.0000105	80
54	3160	151.0000105	80
54	3174	152.0000105	80
54	3246	155.0000105	80
54	3262	156.0000105	80
54	3292	157.0000105	80
54	3339	160.0000105	80
54	3354	161.0000105	80
54	3369	162.0000105	80
54	3400	165.0000105	80
54	3415	166.0000105	80
54	3429	167.0000105	80
54	3460	170.0000105	80
54	3476	171.0000105	80
54	3490	172.0000105	80
54	3521	175.0000105	80
54	3536	176.0000105	80
54	3551	177.0000105	80
54	3634	178.075010407845	80
54	3665	179.075010407845	80
54	3691	180.0000105	80
54	3704	180.075010407845	80
54	3718	181.0000105	80
54	3733	182.0000105	80
54	3764	185.0000105	80
54	3780	186.0000105	80
54	3794	187.0000105	80
54	3825	190.0000105	80
54	3840	191.0000105	80
54	3854	192.0000105	80
54	3879	195.0000105	80
54	3892	196.0000105	80
54	3904	197.0000105	80
55	1708	95.0000105	98
55	1723	96.0000105	98
55	1778	97.0000105	98
55	1849	100.0000105	98
55	1864	101.0000105	98
55	1878	102.0000105	98
55	1949	105.0000105	98
55	2005	106.0000105	98
55	2019	107.0000105	98
55	2090	110.0000105	98
55	2105	111.0000105	98
55	2160	112.0000105	98
55	2231	115.0000105	98
55	2246	116.0000105	98
55	2260	117.0000105	98
55	2331	120.0000105	98
55	2387	121.0000105	98
55	2401	122.0000105	98
55	2473	125.0000105	98
55	2490	126.0000105	98
55	2545	127.0000105	98
55	2617	130.0000105	98
55	2632	131.0000105	98
55	2647	132.0000105	98
55	2719	135.0000105	98
55	2775	136.0000105	98
55	2789	137.0000105	98
55	2861	140.0000105	98
55	2877	141.0000105	98
55	2932	142.0000105	98
55	3004	145.0000105	98
55	3019	146.0000105	98
55	3034	147.0000105	98
55	3106	150.0000105	98
55	3162	151.0000105	98
55	3176	152.0000105	98
55	3248	155.0000105	98
55	3264	156.0000105	98
55	3294	157.0000105	98
55	3341	160.0000105	98
55	3356	161.0000105	98
55	3371	162.0000105	98
55	3402	165.0000105	98
55	3417	166.0000105	98
55	3431	167.0000105	98
55	3462	170.0000105	98
55	3478	171.0000105	98
55	3492	172.0000105	98
55	3523	175.0000105	98
55	3538	176.0000105	98
55	3553	177.0000105	98
55	3636	178.075010407845	98
55	3667	179.075010407845	98
55	3693	180.0000105	98
55	3706	180.075010407845	98
55	3720	181.0000105	98
55	3735	182.0000105	98
55	3766	185.0000105	98
55	3782	186.0000105	98
55	3796	187.0000105	98
55	3827	190.0000105	98
55	3842	191.0000105	98
55	3856	192.0000105	98
55	3881	195.0000105	98
55	3894	196.0000105	98
55	3906	197.0000105	98
56	1708	95.0000105	0
56	1723	96.0000105	0
56	1778	97.0000105	0
56	1849	100.0000105	0
56	1864	101.0000105	0
56	1878	102.0000105	0
56	1949	105.0000105	0
56	2005	106.0000105	0
56	2019	107.0000105	0
56	2090	110.0000105	0
56	2105	111.0000105	0
56	2160	112.0000105	0
56	2231	115.0000105	0
56	2246	116.0000105	0
56	2260	117.0000105	0
56	2331	120.0000105	0
56	2387	121.0000105	0
56	2401	122.0000105	0
56	2473	125.0000105	0
56	2490	126.0000105	0
56	2545	127.0000105	0
56	2617	130.0000105	0
56	2632	131.0000105	0
56	2647	132.0000105	0
56	2719	135.0000105	0
56	2775	136.0000105	0
56	2789	137.0000105	0
56	2861	140.0000105	0
56	2877	141.0000105	0
56	2932	142.0000105	0
56	3004	145.0000105	0
56	3019	146.0000105	0
56	3034	147.0000105	0
56	3106	150.0000105	0
56	3162	151.0000105	0
56	3176	152.0000105	0
56	3248	155.0000105	0
56	3264	156.0000105	0
56	3294	157.0000105	0
56	3341	160.0000105	0
56	3356	161.0000105	0
56	3371	162.0000105	0
56	3402	165.0000105	0
56	3417	166.0000105	0
56	3431	167.0000105	0
56	3462	170.0000105	0
56	3478	171.0000105	0
56	3492	172.0000105	0
56	3523	175.0000105	0
56	3538	176.0000105	0
56	3553	177.0000105	0
56	3636	178.075010407845	0
56	3667	179.075010407845	0
56	3693	180.0000105	0
56	3706	180.075010407845	0
56	3720	181.0000105	0
56	3735	182.0000105	0
56	3766	185.0000105	0
56	3782	186.0000105	0
56	3796	187.0000105	0
56	3827	190.0000105	0
56	3842	191.0000105	0
56	3856	192.0000105	0
56	3881	195.0000105	0
56	3894	196.0000105	0
56	3906	197.0000105	0
57	1710	95.0000105	98
57	1725	96.0000105	98
57	1780	97.0000105	98
57	1851	100.0000105	98
57	1866	101.0000105	98
57	1880	102.0000105	98
57	1951	105.0000105	98
57	2007	106.0000105	98
57	2021	107.0000105	98
57	2092	110.0000105	98
57	2107	111.0000105	98
57	2162	112.0000105	98
57	2233	115.0000105	98
57	2248	116.0000105	98
57	2262	117.0000105	98
57	2333	120.0000105	98
57	2389	121.0000105	98
57	2403	122.0000105	98
57	2475	125.0000105	98
57	2492	126.0000105	98
57	2547	127.0000105	98
57	2619	130.0000105	98
57	2634	131.0000105	98
57	2649	132.0000105	98
57	2721	135.0000105	98
57	2777	136.0000105	98
57	2791	137.0000105	98
57	2863	140.0000105	98
57	2879	141.0000105	98
57	2934	142.0000105	98
57	3006	145.0000105	98
57	3021	146.0000105	98
57	3036	147.0000105	98
57	3108	150.0000105	98
57	3164	151.0000105	98
57	3178	152.0000105	98
57	3250	155.0000105	98
57	3266	156.0000105	98
57	3296	157.0000105	98
57	3343	160.0000105	98
57	3358	161.0000105	98
57	3373	162.0000105	98
57	3404	165.0000105	98
57	3419	166.0000105	98
57	3433	167.0000105	98
57	3464	170.0000105	98
57	3480	171.0000105	98
57	3494	172.0000105	98
57	3525	175.0000105	98
57	3540	176.0000105	98
57	3555	177.0000105	98
57	3638	178.075010407845	98
57	3669	179.075010407845	98
57	3695	180.0000105	98
57	3708	180.075010407845	98
57	3722	181.0000105	98
57	3737	182.0000105	98
57	3768	185.0000105	98
57	3784	186.0000105	98
57	3798	187.0000105	98
57	3829	190.0000105	98
57	3844	191.0000105	98
57	3858	192.0000105	98
57	3883	195.0000105	98
57	3896	196.0000105	98
57	3908	197.0000105	98
58	1712	95.00001898	98
58	1726	96.00001898	98
58	1781	97.00001898	98
58	1853	100.00001898	98
58	1867	101.00001898	98
58	1881	102.00001898	98
58	1953	105.00001898	98
58	2008	106.00001898	98
58	2022	107.00001898	98
58	2094	110.00001898	98
58	2108	111.00001898	98
58	2163	112.00001898	98
58	2235	115.00001898	98
58	2249	116.00001898	98
58	2263	117.00001898	98
58	2335	120.00001898	98
58	2390	121.00001898	98
58	2404	122.00001898	98
58	2477	125.00001898	98
58	2493	126.00001898	98
58	2548	127.00001898	98
58	2621	130.00001898	98
58	2635	131.00001898	98
58	2650	132.00001898	98
58	2723	135.00001898	98
58	2778	136.00001898	98
58	2792	137.00001898	98
58	2865	140.00001898	98
58	2880	141.00001898	98
58	2935	142.00001898	98
58	3008	145.00001898	98
58	3022	146.00001898	98
58	3037	147.00001898	98
58	3110	150.00001898	98
58	3165	151.00001898	98
58	3179	152.00001898	98
58	3252	155.00001898	98
58	3267	156.00001898	98
58	3297	157.00001898	98
58	3345	160.00001898	98
58	3359	161.00001898	98
58	3374	162.00001898	98
58	3406	165.00001898	98
58	3420	166.00001898	98
58	3434	167.00001898	98
58	3466	170.00001898	98
58	3481	171.00001898	98
58	3495	172.00001898	98
58	3527	175.00001898	98
58	3541	176.00001898	98
58	3556	177.00001898	98
58	3640	178.075018887845	98
58	3670	179.075018887845	98
58	3697	180.00001898	98
58	3709	180.075018887845	98
58	3723	181.00001898	98
58	3738	182.00001898	98
58	3770	185.00001898	98
58	3785	186.00001898	98
58	3799	187.00001898	98
58	3831	190.00001898	98
58	3845	191.00001898	98
58	3859	192.00001898	98
58	3885	195.00001898	98
58	3897	196.00001898	98
58	3909	197.00001898	98
59	1641	92.00001908	98
59	1713	95.00001908	98
59	1727	96.00001908	98
59	1782	97.00001908	98
59	1854	100.00001908	98
59	1868	101.00001908	98
59	1882	102.00001908	98
59	1954	105.00001908	98
59	2009	106.00001908	98
59	2023	107.00001908	98
59	2095	110.00001908	98
59	2109	111.00001908	98
59	2164	112.00001908	98
59	2236	115.00001908	98
59	2250	116.00001908	98
59	2264	117.00001908	98
59	2336	120.00001908	98
59	2391	121.00001908	98
59	2405	122.00001908	98
59	2478	125.00001908	98
59	2494	126.00001908	98
59	2549	127.00001908	98
59	2622	130.00001908	98
59	2636	131.00001908	98
59	2651	132.00001908	98
59	2724	135.00001908	98
59	2779	136.00001908	98
59	2793	137.00001908	98
59	2866	140.00001908	98
59	2881	141.00001908	98
59	2936	142.00001908	98
59	3009	145.00001908	98
59	3023	146.00001908	98
59	3038	147.00001908	98
59	3111	150.00001908	98
59	3166	151.00001908	98
59	3180	152.00001908	98
59	3253	155.00001908	98
59	3268	156.00001908	98
59	3298	157.00001908	98
59	3346	160.00001908	98
59	3360	161.00001908	98
59	3375	162.00001908	98
59	3407	165.00001908	98
59	3421	166.00001908	98
59	3435	167.00001908	98
59	3467	170.00001908	98
59	3482	171.00001908	98
59	3496	172.00001908	98
59	3528	175.00001908	98
59	3542	176.00001908	98
59	3557	177.00001908	98
59	3641	178.075018987845	98
59	3671	179.075018987845	98
59	3698	180.00001908	98
59	3710	180.075018987845	98
59	3724	181.00001908	98
59	3739	182.00001908	98
59	3771	185.00001908	98
59	3786	186.00001908	98
59	3800	187.00001908	98
59	3832	190.00001908	98
59	3846	191.00001908	98
59	3860	192.00001908	98
59	3886	195.00001908	98
59	3898	196.00001908	98
59	3910	197.00001908	98
60	1641	92.00001908	98
60	1713	95.00001908	98
60	1727	96.00001908	98
60	1782	97.00001908	98
60	1854	100.00001908	98
60	1868	101.00001908	98
60	1882	102.00001908	98
60	1954	105.00001908	98
60	2009	106.00001908	98
60	2023	107.00001908	98
60	2095	110.00001908	98
60	2109	111.00001908	98
60	2164	112.00001908	98
60	2236	115.00001908	98
60	2250	116.00001908	98
60	2264	117.00001908	98
60	2336	120.00001908	98
60	2391	121.00001908	98
60	2405	122.00001908	98
60	2478	125.00001908	98
60	2494	126.00001908	98
60	2549	127.00001908	98
60	2622	130.00001908	98
60	2636	131.00001908	98
60	2651	132.00001908	98
60	2724	135.00001908	98
60	2779	136.00001908	98
60	2793	137.00001908	98
60	2866	140.00001908	98
60	2881	141.00001908	98
60	2936	142.00001908	98
60	3009	145.00001908	98
60	3023	146.00001908	98
60	3038	147.00001908	98
60	3111	150.00001908	98
60	3166	151.00001908	98
60	3180	152.00001908	98
60	3253	155.00001908	98
60	3268	156.00001908	98
60	3298	157.00001908	98
60	3346	160.00001908	98
60	3360	161.00001908	98
60	3375	162.00001908	98
60	3407	165.00001908	98
60	3421	166.00001908	98
60	3435	167.00001908	98
60	3467	170.00001908	98
60	3482	171.00001908	98
60	3496	172.00001908	98
60	3528	175.00001908	98
60	3542	176.00001908	98
60	3557	177.00001908	98
60	3641	178.075018987845	98
60	3671	179.075018987845	98
60	3698	180.00001908	98
60	3710	180.075018987845	98
60	3724	181.00001908	98
60	3739	182.00001908	98
60	3771	185.00001908	98
60	3786	186.00001908	98
60	3800	187.00001908	98
60	3832	190.00001908	98
60	3846	191.00001908	98
60	3860	192.00001908	98
60	3886	195.00001908	98
60	3898	196.00001908	98
60	3910	197.00001908	98
61	1642	92.00001908	80
61	1714	95.00001908	80
61	1728	96.00001908	80
61	1783	97.00001908	80
61	1855	100.00001908	80
61	1869	101.00001908	80
61	1883	102.00001908	80
61	1955	105.00001908	80
61	2010	106.00001908	80
61	2024	107.00001908	80
61	2096	110.00001908	80
61	2110	111.00001908	80
61	2165	112.00001908	80
61	2237	115.00001908	80
61	2251	116.00001908	80
61	2265	117.00001908	80
61	2337	120.00001908	80
61	2392	121.00001908	80
61	2406	122.00001908	80
61	2479	125.00001908	80
61	2495	126.00001908	80
61	2550	127.00001908	80
61	2623	130.00001908	80
61	2637	131.00001908	80
61	2652	132.00001908	80
61	2725	135.00001908	80
61	2780	136.00001908	80
61	2794	137.00001908	80
61	2867	140.00001908	80
61	2882	141.00001908	80
61	2937	142.00001908	80
61	3010	145.00001908	80
61	3024	146.00001908	80
61	3039	147.00001908	80
61	3112	150.00001908	80
61	3167	151.00001908	80
61	3181	152.00001908	80
61	3254	155.00001908	80
61	3269	156.00001908	80
61	3299	157.00001908	80
61	3347	160.00001908	80
61	3361	161.00001908	80
61	3376	162.00001908	80
61	3408	165.00001908	80
61	3422	166.00001908	80
61	3436	167.00001908	80
61	3468	170.00001908	80
61	3483	171.00001908	80
61	3497	172.00001908	80
61	3529	175.00001908	80
61	3543	176.00001908	80
61	3558	177.00001908	80
61	3642	178.075018987845	80
61	3672	179.075018987845	80
61	3699	180.00001908	80
61	3711	180.075018987845	80
61	3725	181.00001908	80
61	3740	182.00001908	80
61	3772	185.00001908	80
61	3787	186.00001908	80
61	3801	187.00001908	80
61	3833	190.00001908	80
61	3847	191.00001908	80
61	3861	192.00001908	80
61	3887	195.00001908	80
61	3899	196.00001908	80
61	3911	197.00001908	80
70	3621	178.075002467845	72
71	3624	178.075002467845	90
72	3624	178.075002467845	0
73	3626	178.075002467845	90
74	3628	178.075010307845	90
75	3629	178.075010407845	90
76	3629	178.075010407845	90
77	3630	178.075010407845	72

